@<TRIPOS>MOLECULE
Molecule Pharmacophore_all_3.mol2
     5     0
SMALL
NO_CHARGES
@<TRIPOS>ATOM
      1 DON        -0.8470   -3.2890    0.7340 HB    0     HB      0.0000
      2 DON        -6.3470    2.6350   -0.8020 HB    1     HB      0.0000
      3 ACC        -6.0110   -2.1100   -0.8310 HB    2     HB      0.0000
      6 ACC        -0.8470   -3.2890    0.7340 HB    5     HB      0.0000
      7 ACC        -6.3470    2.6350   -0.8020 HB    6     HB      0.0000
@<TRIPOS>BOND
@<TRIPOS>MOLECULE
Pharmacophore_all_3.mol2
    52    52
SMALL
NO_CHARGES
@<TRIPOS>ATOM
      1 C1         -3.8130    3.3670    0.9980 C.3   1     UNK1   -0.0649
      2 C2         -3.6100    1.8510    0.7860 C.3   1     UNK1   -0.0498
      3 C3         -4.9230    1.0760    0.4760 C.3   1     UNK1   -0.0019
      4 C4         -5.5850    1.4310   -0.8780 C.3   1     UNK1    0.0656
      5 C5         -6.4930    0.2300   -1.2090 C.3   1     UNK1    0.0327
      6 C6         -5.8700   -0.9520   -0.4790 C.2   1     UNK1    0.1429
      7 O1         -6.0110   -2.1100   -0.8310 O.2   1     UNK1   -0.2967
      8 C7         -4.7630   -0.4690    0.4550 C.3   1     UNK1    0.0409
      9 C8         -3.4080   -0.9360   -0.0470 C.2   1     UNK1   -0.0750
     10 C9         -2.4960   -1.5520    0.7120 C.2   1     UNK1   -0.0592
     11 C10        -1.1380   -1.9950    0.2120 C.3   1     UNK1    0.0734
     12 C11        -0.0440   -0.9850    0.6290 C.3   1     UNK1   -0.0232
     13 C12         1.3440   -1.3220    0.0350 C.3   1     UNK1   -0.0504
     14 C13         2.4180   -0.2910    0.4510 C.3   1     UNK1   -0.0530
     15 C14         3.8060   -0.6300   -0.1370 C.3   1     UNK1   -0.0530
     16 C15         4.8850    0.3880    0.2940 C.3   1     UNK1   -0.0526
     17 C16         6.2730    0.0470   -0.2930 C.3   1     UNK1   -0.0434
     18 C17         7.3560    1.0590    0.1470 C.3   1     UNK1    0.0337
     19 C18         8.7460    0.7470   -0.4190 C.2   1     UNK1    0.1760
     20 O2          9.0100   -0.1840   -1.1570 O.co2 1     UNK1   -0.6478
     21 O3          9.6970    1.6170   -0.0240 O.co2 1     UNK1   -0.6478
     22 O4         -0.8470   -3.2890    0.7340 O.3   1     UNK1   -0.3878
     23 O5         -6.3470    2.6350   -0.8020 O.3   1     UNK1   -0.3911
     24 H11        -2.8720    3.9224    1.2202 H     1     UNK1    0.0230
     25 H12        -4.5747    3.5534    1.7907 H     1     UNK1    0.0230
     26 H13        -4.2214    3.7801    0.0463 H     1     UNK1    0.0230
     27 H21        -3.0856    1.3997    1.6604 H     1     UNK1    0.0266
     28 H22        -2.9404    1.7295   -0.0973 H     1     UNK1    0.0266
     29 H3         -5.6545    1.3245    1.2800 H     1     UNK1    0.0335
     30 H4         -4.7998    1.5340   -1.6629 H     1     UNK1    0.0600
     31 H51        -6.6358    0.0605   -2.3017 H     1     UNK1    0.0367
     32 H52        -7.4944    0.4225   -0.7580 H     1     UNK1    0.0367
     33 H7         -4.9388   -0.8739    1.4789 H     1     UNK1    0.0423
     34 H8         -3.1602   -0.7553   -1.1065 H     1     UNK1    0.0577
     35 H9         -2.7488   -1.7495    1.7673 H     1     UNK1    0.0595
     36 H10        -1.1667   -2.0546   -0.9010 H     1     UNK1    0.0637
     37 H111        0.0094   -0.8906    1.7387 H     1     UNK1    0.0293
     38 H112       -0.3428    0.0110    0.2265 H     1     UNK1    0.0293
     39 H121        1.2943   -1.4294   -1.0737 H     1     UNK1    0.0266
     40 H122        1.6526   -2.3094    0.4510 H     1     UNK1    0.0266
     41 H131        2.4645   -0.1806    1.5595 H     1     UNK1    0.0265
     42 H132        2.1115    0.6956    0.0315 H     1     UNK1    0.0265
     43 H141        3.7618   -0.7259   -1.2470 H     1     UNK1    0.0265
     44 H142        4.1055   -1.6237    0.2704 H     1     UNK1    0.0265
     45 H151        4.9285    0.4851    1.4039 H     1     UNK1    0.0265
     46 H152        4.5865    1.3815   -0.1148 H     1     UNK1    0.0265
     47 H161        6.2309   -0.0420   -1.4036 H     1     UNK1    0.0270
     48 H162        6.5676   -0.9504    0.1091 H     1     UNK1    0.0270
     49 H171        7.3911    1.1425    1.2583 H     1     UNK1    0.0374
     50 H172        7.0551    2.0569   -0.2492 H     1     UNK1    0.0374
     51 H4          0.0054   -3.5671    0.4201 H     1     UNK1    0.2102
     52 H5         -6.7532    2.8528   -1.6327 H     1     UNK1    0.2098
@<TRIPOS>BOND
     1     1     2    1 
     2     1    24    1 
     3     1    25    1 
     4     1    26    1 
     5     2     3    1 
     6     2    27    1 
     7     2    28    1 
     8     3     4    1 
     9     3     8    1 
    10     3    29    1 
    11     4     5    1 
    12     4    23    1 
    13     4    30    1 
    14     5     6    1 
    15     5    31    1 
    16     5    32    1 
    17     6     7    2 
    18     6     8    1 
    19     8     9    1 
    20     8    33    1 
    21     9    10    2 
    22     9    34    1 
    23    10    11    1 
    24    10    35    1 
    25    11    12    1 
    26    11    22    1 
    27    11    36    1 
    28    12    13    1 
    29    12    37    1 
    30    12    38    1 
    31    13    14    1 
    32    13    39    1 
    33    13    40    1 
    34    14    15    1 
    35    14    41    1 
    36    14    42    1 
    37    15    16    1 
    38    15    43    1 
    39    15    44    1 
    40    16    17    1 
    41    16    45    1 
    42    16    46    1 
    43    17    18    1 
    44    17    47    1 
    45    17    48    1 
    46    18    19    1 
    47    18    49    1 
    48    18    50    1 
    49    19    20    2 
    50    19    21    1 
    51    22    51    1 
    52    23    52    1 
@<TRIPOS>MOLECULE
Molecule Pharmacophore_all_3.mol2
    19     0
SMALL
NO_CHARGES
@<TRIPOS>ATOM
      1 DON        -0.8470   -3.2890    0.7340 HB    0     HB      0.0000
      2 DON        -6.3470    2.6350   -0.8020 HB    1     HB      0.0000
      3 ACC        -6.0110   -2.1100   -0.8310 HB    2     HB      0.0000
      4 ACC         9.0100   -0.1840   -1.1570 HB    3     HB      0.0000
      5 ACC         9.6970    1.6170   -0.0240 HB    4     HB      0.0000
      6 ACC        -0.8470   -3.2890    0.7340 HB    5     HB      0.0000
      7 ACC        -6.3470    2.6350   -0.8020 HB    6     HB      0.0000
      8 ANI         8.7460    0.7470   -0.4190 CHG   7     CHG     0.1760
      9 HYD         5.5790    0.2175    0.0005 HYD   8     HYD     0.0000
     10 HYD         4.3455   -0.1210    0.0785 HYD   9     HYD     0.0000
     11 HYD         3.1120   -0.4605    0.1570 HYD   10    HYD     0.0000
     12 HYD         1.8810   -0.8065    0.2430 HYD   11    HYD     0.0000
     13 HYD         0.6500   -1.1535    0.3320 HYD   12    HYD     0.0000
     14 HYD        -4.0855   -0.7025    0.2040 HYD   13    HYD     0.0000
     15 HYD        -4.2665    1.4635    0.6310 HYD   14    HYD     0.0000
     16 HYD        -3.7115    2.6090    0.8920 HYD   15    HYD     0.0000
     17 HYD        -4.8430    0.3035    0.4655 HYD   16    HYD     0.0000
     18 HYD        -2.9520   -1.2440    0.3325 HYD   17    HYD     0.0000
     19 HYD        -3.8130    3.3670    0.9980 HYD   18    HYD     0.0000
@<TRIPOS>BOND
@<TRIPOS>MOLECULE
Pharmacophore_all_1.mol2
    74    78
SMALL
NO_CHARGES
@<TRIPOS>ATOM
      1 C1         -5.1393    0.8174    4.7094 C.ar  1     UNK1   -0.0494
      2 C2         -4.3022    1.9436    4.6621 C.ar  1     UNK1   -0.0288
      3 C3         -2.9081    1.7852    4.6089 C.ar  1     UNK1    0.1022
      4 C4         -2.3517    0.4903    4.6212 C.ar  1     UNK1    0.1028
      5 C5         -3.1903   -0.6344    4.6812 C.ar  1     UNK1   -0.0197
      6 C6         -4.5913   -0.4796    4.7030 C.ar  1     UNK1    0.0107
      7 C7         -5.4868   -1.6390    4.7073 C.2   1     UNK1    0.1240
      8 C8         -5.4019   -2.5666    3.6806 C.2   1     UNK1    0.1576
      9 C9         -6.2822   -3.6437    3.6216 C.2   1     UNK1    0.2234
     10 O1         -6.1886   -4.4928    2.7379 O.2   1     UNK1   -0.2843
     11 C10        -7.3139   -3.6823    4.6798 C.ar  1     UNK1    0.0846
     12 C11        -8.3064   -4.6981    4.7250 C.ar  1     UNK1    0.0884
     13 C12        -9.2867   -4.6961    5.7318 C.ar  1     UNK1   -0.0013
     14 C13        -9.3031   -3.6898    6.7057 C.ar  1     UNK1    0.0775
     15 C14        -8.3337   -2.6793    6.6730 C.ar  1     UNK1   -0.0005
     16 C15        -7.3509   -2.6757    5.6708 C.ar  1     UNK1    0.0990
     17 O2         -6.4413   -1.6484    5.6852 O.3   1     UNK1   -0.3051
     18 O3        -10.2587   -3.6849    7.6796 O.3   1     UNK1   -0.3597
     19 O4         -8.3644   -5.7080    3.8059 O.3   1     UNK1   -0.3590
     20 O5         -4.4111   -2.4193    2.7299 O.3   1     UNK1   -0.3061
     21 C16        -4.7218   -2.2802    1.3275 C.3   1     UNK1    0.1943
     22 C17        -5.2890   -0.8617    1.0566 C.3   1     UNK1    0.1410
     23 C18        -4.1778    0.2215    1.1684 C.3   1     UNK1    0.1144
     24 C19        -2.9082   -0.1403    0.3623 C.3   1     UNK1    0.1119
     25 C20        -2.4252   -1.5575    0.7714 C.3   1     UNK1    0.1130
     26 O6         -3.5160   -2.4839    0.5576 O.3   1     UNK1   -0.3402
     27 C21        -1.1402   -1.9967    0.2141 C.3   1     UNK1    0.0730
     28 O7         -0.8138   -3.2926    0.7180 O.3   1     UNK1   -0.3924
     29 O8         -3.1486   -0.0741   -1.0470 O.3   1     UNK1   -0.3865
     30 O9         -4.6527    1.5378    0.8672 O.3   1     UNK1   -0.3864
     31 O10        -5.8118   -0.9211   -0.3815 O.3   1     UNK1   -0.3377
     32 C22        -6.6449    0.2563   -0.7364 C.3   1     UNK1    0.1885
     33 C23        -5.6100    1.4029   -0.8667 C.3   1     UNK1    0.1341
     34 C24        -4.7572    1.2201   -2.1535 C.3   1     UNK1    0.1141
     35 C25        -5.6182    0.9768   -3.4202 C.3   1     UNK1    0.1119
     36 C26        -6.6265   -0.1760   -3.1670 C.3   1     UNK1    0.1130
     37 O11        -7.3883    0.1212   -1.9700 O.3   1     UNK1   -0.3405
     38 C27        -7.6257   -0.3732   -4.3278 C.3   1     UNK1    0.0730
     39 O12        -8.2937   -1.6313   -4.2081 O.3   1     UNK1   -0.3924
     40 O13        -6.3000    2.1673   -3.8278 O.3   1     UNK1   -0.3865
     41 O14        -3.8360    2.2986   -2.3534 O.3   1     UNK1   -0.3864
     42 O15        -6.2700    2.6741   -0.8307 O.3   1     UNK1   -0.3841
     43 O16        -1.0001    0.3173    4.5527 O.3   1     UNK1   -0.3573
     44 O17        -2.1034    2.8879    4.5335 O.3   1     UNK1   -0.3573
     45 H1         -6.2335    0.9495    4.7518 H     1     UNK1    0.0625
     46 H2         -4.7410    2.9555    4.6667 H     1     UNK1    0.0644
     47 H5         -2.7500   -1.6453    4.7115 H     1     UNK1    0.0651
     48 H12       -10.0490   -5.4929    5.7552 H     1     UNK1    0.0669
     49 H14        -8.3426   -1.8840    7.4372 H     1     UNK1    0.0669
     50 H3        -10.2699   -3.0024    8.3403 H     1     UNK1    0.2173
     51 H4         -9.0279   -6.3872    3.8360 H     1     UNK1    0.2173
     52 H16        -5.4802   -3.0445    1.0380 H     1     UNK1    0.0942
     53 H17        -5.9931   -0.7368    1.7016 H     1     UNK1    0.0675
     54 H18        -3.8700    0.2405    2.2398 H     1     UNK1    0.0648
     55 H19        -2.1076    0.5925    0.6182 H     1     UNK1    0.0647
     56 H20        -2.6340   -1.8367    1.7972 H     1     UNK1    0.0647
     57 H211       -0.3485   -1.2487    0.4527 H     1     UNK1    0.0584
     58 H212       -1.2026   -2.0754   -0.8964 H     1     UNK1    0.0584
     59 H7          0.0388   -3.5694    0.4033 H     1     UNK1    0.2095
     60 H8         -2.3688   -0.2962   -1.5420 H     1     UNK1    0.2100
     61 H9         -3.9742    2.1992    0.9355 H     1     UNK1    0.2100
     62 H22        -7.3455    0.4755    0.1029 H     1     UNK1    0.0938
     63 H23        -4.9239    1.3474    0.0106 H     1     UNK1    0.0671
     64 H24        -4.1445    0.3009   -2.0026 H     1     UNK1    0.0648
     65 H25        -4.9378    0.6666   -4.2473 H     1     UNK1    0.0647
     66 H26        -6.0611   -1.1241   -3.0105 H     1     UNK1    0.0647
     67 H271       -7.1333   -0.2589   -5.3217 H     1     UNK1    0.0584
     68 H272       -8.3989    0.4257   -4.2433 H     1     UNK1    0.0584
     69 H12        -8.9083   -1.7527   -4.9223 H     1     UNK1    0.2095
     70 H13        -6.8275    2.0182   -4.6038 H     1     UNK1    0.2100
     71 H14        -3.3148    2.1870   -3.1398 H     1     UNK1    0.2100
     72 H15        -5.6357    3.3768   -0.9105 H     1     UNK1    0.2101
     73 H16        -0.6251   -0.5556    4.5610 H     1     UNK1    0.2174
     74 H17        -1.1602    2.7807    4.4975 H     1     UNK1    0.2174
@<TRIPOS>BOND
     1     1     2    ar
     2     1     6    ar
     3     1    45    1 
     4     2     3    ar
     5     2    46    1 
     6     3     4    ar
     7     3    44    1 
     8     4     5    ar
     9     4    43    1 
    10     5     6    ar
    11     5    47    1 
    12     6     7    1 
    13     7     8    2 
    14     7    17    1 
    15     8     9    2 
    16     8    20    1 
    17     9    10    2 
    18     9    11    1 
    19    11    12    ar
    20    11    16    ar
    21    12    13    ar
    22    12    19    1 
    23    13    14    ar
    24    13    48    1 
    25    14    15    ar
    26    14    18    1 
    27    15    16    ar
    28    15    49    1 
    29    16    17    1 
    30    18    50    1 
    31    19    51    1 
    32    20    21    1 
    33    21    22    1 
    34    21    26    1 
    35    21    52    1 
    36    22    23    1 
    37    22    31    1 
    38    22    53    1 
    39    23    24    1 
    40    23    30    1 
    41    23    54    1 
    42    24    25    1 
    43    24    29    1 
    44    24    55    1 
    45    25    26    1 
    46    25    27    1 
    47    25    56    1 
    48    27    28    1 
    49    27    57    1 
    50    27    58    1 
    51    28    59    1 
    52    29    60    1 
    53    30    61    1 
    54    31    32    1 
    55    32    33    1 
    56    32    37    1 
    57    32    62    1 
    58    33    34    1 
    59    33    42    1 
    60    33    63    1 
    61    34    35    1 
    62    34    41    1 
    63    34    64    1 
    64    35    36    1 
    65    35    40    1 
    66    35    65    1 
    67    36    37    1 
    68    36    38    1 
    69    36    66    1 
    70    38    39    1 
    71    38    67    1 
    72    38    68    1 
    73    39    69    1 
    74    40    70    1 
    75    41    71    1 
    76    42    72    1 
    77    43    73    1 
    78    44    74    1 
@<TRIPOS>MOLECULE
Molecule Pharmacophore_all_1.mol2
    31     0
SMALL
NO_CHARGES
@<TRIPOS>ATOM
      1 DON       -10.2587   -3.6849    7.6796 HB    0     HB      0.0000
      2 DON        -8.3644   -5.7080    3.8059 HB    1     HB      0.0000
      3 DON        -0.8138   -3.2926    0.7180 HB    2     HB      0.0000
      4 DON        -3.1486   -0.0741   -1.0470 HB    3     HB      0.0000
      5 DON        -4.6527    1.5378    0.8672 HB    4     HB      0.0000
      6 DON        -8.2937   -1.6313   -4.2081 HB    5     HB      0.0000
      7 DON        -6.3000    2.1673   -3.8278 HB    6     HB      0.0000
      8 DON        -3.8360    2.2986   -2.3534 HB    7     HB      0.0000
      9 DON        -6.2700    2.6741   -0.8307 HB    8     HB      0.0000
     10 DON        -1.0001    0.3173    4.5527 HB    9     HB      0.0000
     11 DON        -2.1034    2.8879    4.5335 HB    10    HB      0.0000
     12 ACC        -6.1886   -4.4928    2.7379 HB    11    HB      0.0000
     13 ACC        -6.4413   -1.6484    5.6852 HB    12    HB      0.0000
     14 ACC       -10.2587   -3.6849    7.6796 HB    13    HB      0.0000
     15 ACC        -8.3644   -5.7080    3.8059 HB    14    HB      0.0000
     16 ACC        -4.4111   -2.4193    2.7299 HB    15    HB      0.0000
     17 ACC        -3.5160   -2.4839    0.5576 HB    16    HB      0.0000
     18 ACC        -0.8138   -3.2926    0.7180 HB    17    HB      0.0000
     19 ACC        -3.1486   -0.0741   -1.0470 HB    18    HB      0.0000
     20 ACC        -4.6527    1.5378    0.8672 HB    19    HB      0.0000
     21 ACC        -5.9220   -0.9630   -0.4616 HB    20    HB      0.0000
     22 ACC        -7.3883    0.1212   -1.9700 HB    21    HB      0.0000
     23 ACC        -8.2937   -1.6313   -4.2081 HB    22    HB      0.0000
     24 ACC        -6.3000    2.1673   -3.8278 HB    23    HB      0.0000
     25 ACC        -3.8360    2.2986   -2.3534 HB    24    HB      0.0000
     26 ACC        -6.2700    2.6741   -0.8307 HB    25    HB      0.0000
     27 ACC        -1.0001    0.3173    4.5527 HB    26    HB      0.0000
     28 ACC        -2.1034    2.8879    4.5335 HB    27    HB      0.0000
     29 AR         -3.7471    0.6537    4.6643 AR    28    AR      0.0000
     30 AR         -6.3795   -2.6426    4.6742 AR    29    AR      0.0000
     31 AR         -8.3158   -3.6869    5.6977 AR    30    AR      0.0000
@<TRIPOS>BOND
@<TRIPOS>MOLECULE
Pharmacophore_all_2.mol2
    74    78
SMALL
NO_CHARGES
@<TRIPOS>ATOM
      1 C1         -5.1368    0.8180    4.7097 C.ar  1     UNK1   -0.0494
      2 C2         -4.3007    1.9454    4.6612 C.ar  1     UNK1   -0.0288
      3 C3         -2.9066    1.7867    4.6069 C.ar  1     UNK1    0.1022
      4 C4         -2.3495    0.4922    4.6204 C.ar  1     UNK1    0.1028
      5 C5         -3.1882   -0.6324    4.6812 C.ar  1     UNK1   -0.0197
      6 C6         -4.5891   -0.4777    4.7027 C.ar  1     UNK1    0.0107
      7 C7         -5.4848   -1.6375    4.7087 C.2   1     UNK1    0.1240
      8 C8         -5.3999   -2.5660    3.6817 C.2   1     UNK1    0.1576
      9 C9         -6.2794   -3.6429    3.6236 C.2   1     UNK1    0.2234
     10 O1         -6.1876   -4.4922    2.7398 O.2   1     UNK1   -0.2843
     11 C10        -7.3122   -3.6812    4.6825 C.ar  1     UNK1    0.0846
     12 C11        -8.3038   -4.6968    4.7287 C.ar  1     UNK1    0.0884
     13 C12        -9.2833   -4.6940    5.7355 C.ar  1     UNK1   -0.0013
     14 C13        -9.2998   -3.6877    6.7092 C.ar  1     UNK1    0.0775
     15 C14        -8.3302   -2.6773    6.6756 C.ar  1     UNK1   -0.0005
     16 C15        -7.3482   -2.6746    5.6734 C.ar  1     UNK1    0.0990
     17 O2         -6.4385   -1.6469    5.6861 O.3   1     UNK1   -0.3051
     18 O3        -10.2545   -3.6833    7.6834 O.3   1     UNK1   -0.3597
     19 O4         -8.3617   -5.7076    3.8093 O.3   1     UNK1   -0.3590
     20 O5         -4.4097   -2.4196    2.7310 O.3   1     UNK1   -0.3061
     21 C16        -4.7207   -2.2792    1.3285 C.3   1     UNK1    0.1943
     22 C17        -5.2888   -0.8615    1.0573 C.3   1     UNK1    0.1410
     23 C18        -4.1773    0.2215    1.1680 C.3   1     UNK1    0.1144
     24 C19        -2.9074   -0.1410    0.3619 C.3   1     UNK1    0.1119
     25 C20        -2.4253   -1.5575    0.7713 C.3   1     UNK1    0.1130
     26 O6         -3.5155   -2.4840    0.5571 O.3   1     UNK1   -0.3402
     27 C21        -1.1401   -1.9967    0.2140 C.3   1     UNK1    0.0730
     28 O7         -0.8132   -3.2925    0.7177 O.3   1     UNK1   -0.3924
     29 O8         -3.1490   -0.0744   -1.0481 O.3   1     UNK1   -0.3865
     30 O9         -4.6522    1.5379    0.8670 O.3   1     UNK1   -0.3864
     31 O10        -5.8113   -0.9208   -0.3810 O.3   1     UNK1   -0.3377
     32 C22        -6.6445    0.2556   -0.7364 C.3   1     UNK1    0.1885
     33 C23        -5.6097    1.4032   -0.8668 C.3   1     UNK1    0.1341
     34 C24        -4.7579    1.2216   -2.1536 C.3   1     UNK1    0.1141
     35 C25        -5.6192    0.9783   -3.4210 C.3   1     UNK1    0.1119
     36 C26        -6.6263   -0.1754   -3.1679 C.3   1     UNK1    0.1130
     37 O11        -7.3882    0.1208   -1.9707 O.3   1     UNK1   -0.3405
     38 C27        -7.6256   -0.3733   -4.3286 C.3   1     UNK1    0.0730
     39 O12        -8.2931   -1.6312   -4.2083 O.3   1     UNK1   -0.3924
     40 O13        -6.3012    2.1683   -3.8284 O.3   1     UNK1   -0.3865
     41 O14        -3.8371    2.3002   -2.3542 O.3   1     UNK1   -0.3864
     42 O15        -6.2709    2.6738   -0.8304 O.3   1     UNK1   -0.3841
     43 O16        -0.9980    0.3189    4.5508 O.3   1     UNK1   -0.3573
     44 O17        -2.1008    2.8888    4.5316 O.3   1     UNK1   -0.3573
     45 H1         -6.2311    0.9495    4.7536 H     1     UNK1    0.0625
     46 H2         -4.7398    2.9571    4.6658 H     1     UNK1    0.0644
     47 H5         -2.7480   -1.6433    4.7123 H     1     UNK1    0.0651
     48 H12       -10.0457   -5.4908    5.7593 H     1     UNK1    0.0669
     49 H14        -8.3387   -1.8815    7.4392 H     1     UNK1    0.0669
     50 H3        -10.2656   -3.0006    8.3440 H     1     UNK1    0.2173
     51 H4         -9.0250   -6.3869    3.8401 H     1     UNK1    0.2173
     52 H16        -5.4794   -3.0434    1.0394 H     1     UNK1    0.0942
     53 H17        -5.9927   -0.7370    1.7019 H     1     UNK1    0.0675
     54 H18        -3.8692    0.2408    2.2394 H     1     UNK1    0.0648
     55 H19        -2.1065    0.5915    0.6173 H     1     UNK1    0.0647
     56 H20        -2.6347   -1.8369    1.7976 H     1     UNK1    0.0647
     57 H211       -0.3486   -1.2484    0.4526 H     1     UNK1    0.0584
     58 H212       -1.2026   -2.0752   -0.8965 H     1     UNK1    0.0584
     59 H7          0.0394   -3.5690    0.4028 H     1     UNK1    0.2095
     60 H8         -2.3692   -0.2970   -1.5430 H     1     UNK1    0.2100
     61 H9         -3.9736    2.1992    0.9347 H     1     UNK1    0.2100
     62 H22        -7.3452    0.4745    0.1029 H     1     UNK1    0.0938
     63 H23        -4.9233    1.3479    0.0101 H     1     UNK1    0.0671
     64 H24        -4.1449    0.3025   -2.0033 H     1     UNK1    0.0648
     65 H25        -4.9385    0.6688   -4.2481 H     1     UNK1    0.0647
     66 H26        -6.0599   -1.1231   -3.0117 H     1     UNK1    0.0647
     67 H271       -7.1333   -0.2593   -5.3225 H     1     UNK1    0.0584
     68 H272       -8.3989    0.4254   -4.2444 H     1     UNK1    0.0584
     69 H12        -8.9078   -1.7530   -4.9223 H     1     UNK1    0.2095
     70 H13        -6.8286    2.0193   -4.6044 H     1     UNK1    0.2100
     71 H14        -3.3163    2.1892   -3.1410 H     1     UNK1    0.2100
     72 H15        -5.6370    3.3768   -0.9103 H     1     UNK1    0.2101
     73 H16        -0.6224   -0.5537    4.5599 H     1     UNK1    0.2174
     74 H17        -1.1576    2.7815    4.4949 H     1     UNK1    0.2174
@<TRIPOS>BOND
     1     1     2    ar
     2     1     6    ar
     3     1    45    1 
     4     2     3    ar
     5     2    46    1 
     6     3     4    ar
     7     3    44    1 
     8     4     5    ar
     9     4    43    1 
    10     5     6    ar
    11     5    47    1 
    12     6     7    1 
    13     7     8    2 
    14     7    17    1 
    15     8     9    2 
    16     8    20    1 
    17     9    10    2 
    18     9    11    1 
    19    11    12    ar
    20    11    16    ar
    21    12    13    ar
    22    12    19    1 
    23    13    14    ar
    24    13    48    1 
    25    14    15    ar
    26    14    18    1 
    27    15    16    ar
    28    15    49    1 
    29    16    17    1 
    30    18    50    1 
    31    19    51    1 
    32    20    21    1 
    33    21    22    1 
    34    21    26    1 
    35    21    52    1 
    36    22    23    1 
    37    22    31    1 
    38    22    53    1 
    39    23    24    1 
    40    23    30    1 
    41    23    54    1 
    42    24    25    1 
    43    24    29    1 
    44    24    55    1 
    45    25    26    1 
    46    25    27    1 
    47    25    56    1 
    48    27    28    1 
    49    27    57    1 
    50    27    58    1 
    51    28    59    1 
    52    29    60    1 
    53    30    61    1 
    54    31    32    1 
    55    32    33    1 
    56    32    37    1 
    57    32    62    1 
    58    33    34    1 
    59    33    42    1 
    60    33    63    1 
    61    34    35    1 
    62    34    41    1 
    63    34    64    1 
    64    35    36    1 
    65    35    40    1 
    66    35    65    1 
    67    36    37    1 
    68    36    38    1 
    69    36    66    1 
    70    38    39    1 
    71    38    67    1 
    72    38    68    1 
    73    39    69    1 
    74    40    70    1 
    75    41    71    1 
    76    42    72    1 
    77    43    73    1 
    78    44    74    1 
@<TRIPOS>MOLECULE
Molecule Pharmacophore_all_2.mol2
    31     0
SMALL
NO_CHARGES
@<TRIPOS>ATOM
      1 DON       -10.2545   -3.6833    7.6834 HB    0     HB      0.0000
      2 DON        -8.3617   -5.7076    3.8093 HB    1     HB      0.0000
      3 DON        -0.8132   -3.2925    0.7177 HB    2     HB      0.0000
      4 DON        -3.1490   -0.0744   -1.0481 HB    3     HB      0.0000
      5 DON        -4.6522    1.5379    0.8670 HB    4     HB      0.0000
      6 DON        -8.2931   -1.6312   -4.2083 HB    5     HB      0.0000
      7 DON        -6.3012    2.1683   -3.8284 HB    6     HB      0.0000
      8 DON        -3.8371    2.3002   -2.3542 HB    7     HB      0.0000
      9 DON        -6.2709    2.6738   -0.8304 HB    8     HB      0.0000
     10 DON        -0.9980    0.3189    4.5508 HB    9     HB      0.0000
     11 DON        -2.1008    2.8888    4.5316 HB    10    HB      0.0000
     12 ACC        -6.1876   -4.4922    2.7398 HB    11    HB      0.0000
     13 ACC        -6.4385   -1.6469    5.6861 HB    12    HB      0.0000
     14 ACC       -10.2545   -3.6833    7.6834 HB    13    HB      0.0000
     15 ACC        -8.3617   -5.7076    3.8093 HB    14    HB      0.0000
     16 ACC        -4.4097   -2.4196    2.7310 HB    15    HB      0.0000
     17 ACC        -3.5155   -2.4840    0.5571 HB    16    HB      0.0000
     18 ACC        -0.8132   -3.2925    0.7177 HB    17    HB      0.0000
     19 ACC        -3.1490   -0.0744   -1.0481 HB    18    HB      0.0000
     20 ACC        -4.6522    1.5379    0.8670 HB    19    HB      0.0000
     21 ACC        -5.9214   -0.9630   -0.4618 HB    20    HB      0.0000
     22 ACC        -7.3882    0.1208   -1.9707 HB    21    HB      0.0000
     23 ACC        -8.2931   -1.6312   -4.2083 HB    22    HB      0.0000
     24 ACC        -6.3012    2.1683   -3.8284 HB    23    HB      0.0000
     25 ACC        -3.8371    2.3002   -2.3542 HB    24    HB      0.0000
     26 ACC        -6.2709    2.6738   -0.8304 HB    25    HB      0.0000
     27 ACC        -0.9980    0.3189    4.5508 HB    26    HB      0.0000
     28 ACC        -2.1008    2.8888    4.5316 HB    27    HB      0.0000
     29 AR         -3.7452    0.6554    4.6637 AR    28    AR      0.0000
     30 AR         -6.3771   -2.6415    4.6760 AR    29    AR      0.0000
     31 AR         -8.3129   -3.6853    5.7008 AR    30    AR      0.0000
@<TRIPOS>BOND
@<TRIPOS>MOLECULE
Pharmacophore_all_5.mol2
   104   107
SMALL
NO_CHARGES
@<TRIPOS>ATOM
      1 C1        -16.4442   -4.8442  -13.7707 C.3   1     UNK1   -0.0653
      2 C2        -15.7730   -5.1078  -12.4084 C.3   1     UNK1   -0.0559
      3 C3        -14.8663   -3.9358  -11.9690 C.3   1     UNK1   -0.0533
      4 C4        -14.1957   -4.2013  -10.6031 C.3   1     UNK1   -0.0531
      5 C5        -13.2918   -3.0292  -10.1610 C.3   1     UNK1   -0.0531
      6 C6        -12.6240   -3.2959   -8.7934 C.3   1     UNK1   -0.0531
      7 C7        -11.7239   -2.1228   -8.3454 C.3   1     UNK1   -0.0531
      8 C8        -11.0631   -2.3928   -6.9750 C.3   1     UNK1   -0.0531
      9 C9        -10.1689   -1.2200   -6.5158 C.3   1     UNK1   -0.0531
     10 C10        -9.5186   -1.4934   -5.1413 C.3   1     UNK1   -0.0531
     11 C11        -8.6328   -0.3202   -4.6665 C.3   1     UNK1   -0.0531
     12 C12        -7.9985   -0.5998   -3.2861 C.3   1     UNK1   -0.0530
     13 C13        -7.1232    0.5730   -2.7936 C.3   1     UNK1   -0.0506
     14 C14        -6.5064    0.2848   -1.4040 C.3   1     UNK1   -0.0244
     15 C15        -5.5840    1.4227   -0.8919 C.3   1     UNK1    0.0826
     16 O1         -6.3418    2.6313   -0.7934 O.3   1     UNK1   -0.3892
     17 C16        -4.9077    1.0334    0.4565 C.3   1     UNK1    0.0988
     18 O2         -5.6665    1.4839    1.5839 O.3   1     UNK1   -0.3876
     19 C17        -4.7413   -0.4169    0.4085 C.3   1     UNK1    0.0660
     20 C18        -5.9536   -0.8936   -0.5294 C.3   1     UNK1    0.0624
     21 O3         -5.8346   -2.3028   -0.7395 O.3   1     UNK1   -0.3934
     22 N1         -3.4031   -0.8910   -0.0568 N.am  1     UNK1   -0.2477
     23 C19        -2.5092   -1.6041    0.8442 C.2   1     UNK1    0.2372
     24 O4         -2.7747   -1.8521    2.0100 O.2   1     UNK1   -0.2760
     25 C20        -1.1371   -1.9952    0.2126 C.3   1     UNK1    0.1634
     26 O5         -0.8456   -3.2994    0.7376 O.3   1     UNK1   -0.3749
     27 C21        -1.2217   -2.1553   -1.3496 C.3   1     UNK1   -0.0143
     28 C22        -1.6400   -3.5478   -1.8899 C.3   1     UNK1   -0.0619
     29 C23        -0.0718   -0.9913    0.6317 C.2   1     UNK1    0.0040
     30 C24        -0.7294   -0.0852    1.4988 C.2   1     UNK1    0.0431
     31 C25        -2.2077   -0.1723    1.8590 C.3   1     UNK1    0.0742
     32 O6         -2.8120    1.1073    2.0200 O.3   1     UNK1   -0.3902
     33 C26        -0.0184    1.0714    2.1392 C.2   1     UNK1    0.2374
     34 O7         -0.5370    1.8901    2.8802 O.2   1     UNK1   -0.2736
     35 N2          1.3202    1.1577    1.8146 N.am  1     UNK1   -0.2040
     36 C27         2.2835    2.1677    2.3047 C.3   1     UNK1    0.0387
     37 C28         3.5654    1.7068    1.6258 C.ar  1     UNK1   -0.0050
     38 C29         4.8569    2.2416    1.6886 C.ar  1     UNK1   -0.0460
     39 C30         5.8563    1.5812    0.9426 C.ar  1     UNK1    0.0032
     40 C31         7.1774    2.0647    0.9614 C.ar  1     UNK1   -0.0227
     41 C32         8.1768    1.4127    0.2224 C.ar  1     UNK1    0.0733
     42 C33         7.8573    0.2775   -0.5374 C.ar  1     UNK1   -0.0299
     43 C34         6.5392   -0.2087   -0.5594 C.ar  1     UNK1   -0.0333
     44 C35         5.5215    0.4282    0.1737 C.ar  1     UNK1    0.0719
     45 N3          4.2616   -0.0681    0.1315 N.ar  1     UNK1   -0.2454
     46 C36         3.3283    0.5803    0.8523 C.ar  1     UNK1    0.0873
     47 C37         1.9244    0.2541    0.9830 C.2   1     UNK1    0.0517
     48 C38         1.2898   -0.8034    0.3894 C.2   1     UNK1   -0.0344
     49 O8          9.4585    1.8790    0.2397 O.3   1     UNK1   -0.3598
     50 H11       -17.0982   -5.6897  -14.0877 H     1     UNK1    0.0230
     51 H12       -15.6875   -4.6036  -14.5536 H     1     UNK1    0.0230
     52 H13       -17.0956   -3.9471  -13.6518 H     1     UNK1    0.0230
     53 H21       -15.2123   -6.0716  -12.4145 H     1     UNK1    0.0263
     54 H22       -16.5855   -5.2013  -11.6506 H     1     UNK1    0.0263
     55 H31       -15.4263   -2.9716  -11.9637 H     1     UNK1    0.0265
     56 H32       -14.0530   -3.8433  -12.7259 H     1     UNK1    0.0265
     57 H41       -13.6339   -5.1644  -10.6095 H     1     UNK1    0.0265
     58 H42       -15.0093   -4.2966   -9.8466 H     1     UNK1    0.0265
     59 H51       -13.8526   -2.0657  -10.1561 H     1     UNK1    0.0265
     60 H52       -12.4767   -2.9354  -10.9160 H     1     UNK1    0.0265
     61 H61       -12.0596   -4.2575   -8.8006 H     1     UNK1    0.0265
     62 H62       -13.4394   -3.3952   -8.0395 H     1     UNK1    0.0265
     63 H71       -12.2859   -1.1598   -8.3414 H     1     UNK1    0.0265
     64 H72       -10.9051   -2.0266   -9.0960 H     1     UNK1    0.0265
     65 H81       -10.4959   -3.3528   -6.9833 H     1     UNK1    0.0265
     66 H82       -11.8827   -2.4981   -6.2265 H     1     UNK1    0.0265
     67 H91       -10.7326   -0.2580   -6.5128 H     1     UNK1    0.0265
     68 H92        -9.3443   -1.1196   -7.2595 H     1     UNK1    0.0265
     69 H101       -8.9473   -2.4508   -5.1500 H     1     UNK1    0.0265
     70 H102      -10.3441   -1.6065   -4.4005 H     1     UNK1    0.0265
     71 H111       -9.1987    0.6405   -4.6656 H     1     UNK1    0.0265
     72 H112       -7.7997   -0.2146   -5.4000 H     1     UNK1    0.0265
     73 H121       -7.4238   -1.5553   -3.2935 H     1     UNK1    0.0265
     74 H122       -8.8327   -0.7204   -2.5561 H     1     UNK1    0.0265
     75 H131       -7.6916    1.5323   -2.7945 H     1     UNK1    0.0266
     76 H132       -6.2805    0.6849   -3.5150 H     1     UNK1    0.0266
     77 H141       -5.9671   -0.6911   -1.4053 H     1     UNK1    0.0291
     78 H142       -7.3504    0.1940   -0.6811 H     1     UNK1    0.0291
     79 H15        -6.5845    1.0555   -0.9400 H     1     UNK1    0.0619
     80 H1         -5.7771    3.3279   -0.4799 H     1     UNK1    0.2099
     81 H16        -5.8251    1.4561    0.6725 H     1     UNK1    0.0635
     82 H2         -5.2572    1.1810    2.3860 H     1     UNK1    0.2100
     83 H17        -4.7079   -0.2111    1.4318 H     1     UNK1    0.0513
     84 H181       -5.9655   -0.3439   -1.4994 H     1     UNK1    0.0574
     85 H182       -6.9370   -0.7145   -0.0354 H     1     UNK1    0.0574
     86 H3         -6.5068   -2.6450   -1.3170 H     1     UNK1    0.2095
     87 H1         -3.2973   -1.0377   -0.9870 H     1     UNK1    0.1309
     88 H5         -0.0156   -3.5165    0.3294 H     1     UNK1    0.2113
     89 H211       -0.2512   -1.8536   -1.8084 H     1     UNK1    0.0298
     90 H212       -1.9872   -1.4277   -1.7071 H     1     UNK1    0.0298
     91 H221       -1.7000   -3.6613   -2.9974 H     1     UNK1    0.0231
     92 H222       -2.6105   -3.8495   -1.4311 H     1     UNK1    0.0231
     93 H223       -0.8745   -4.2754   -1.5323 H     1     UNK1    0.0231
     94 H251       -2.3616   -0.8037    2.7650 H     1     UNK1    0.0609
     95 H252       -2.7255   -0.6784    1.0112 H     1     UNK1    0.0609
     96 H6         -3.7334    1.0530    2.2445 H     1     UNK1    0.2098
     97 H271        2.3415    2.2747    3.4130 H     1     UNK1    0.0485
     98 H272        1.9989    3.1564    1.8749 H     1     UNK1    0.0485
     99 H29         5.0830    3.1365    2.2923 H     1     UNK1    0.0628
    100 H31         7.4282    2.9578    1.5581 H     1     UNK1    0.0650
    101 H33         8.6425   -0.2346   -1.1187 H     1     UNK1    0.0644
    102 H34         6.2991   -1.1022   -1.1599 H     1     UNK1    0.0640
    103 H38         1.8441   -1.4941   -0.2681 H     1     UNK1    0.0638
    104 H8         10.1350    1.4377   -0.2605 H     1     UNK1    0.2173
@<TRIPOS>BOND
     1     1     2    1 
     2     1    50    1 
     3     1    51    1 
     4     1    52    1 
     5     2     3    1 
     6     2    53    1 
     7     2    54    1 
     8     3     4    1 
     9     3    55    1 
    10     3    56    1 
    11     4     5    1 
    12     4    57    1 
    13     4    58    1 
    14     5     6    1 
    15     5    59    1 
    16     5    60    1 
    17     6     7    1 
    18     6    61    1 
    19     6    62    1 
    20     7     8    1 
    21     7    63    1 
    22     7    64    1 
    23     8     9    1 
    24     8    65    1 
    25     8    66    1 
    26     9    10    1 
    27     9    67    1 
    28     9    68    1 
    29    10    11    1 
    30    10    69    1 
    31    10    70    1 
    32    11    12    1 
    33    11    71    1 
    34    11    72    1 
    35    12    13    1 
    36    12    73    1 
    37    12    74    1 
    38    13    14    1 
    39    13    75    1 
    40    13    76    1 
    41    14    15    1 
    42    14    77    1 
    43    14    78    1 
    44    15    16    1 
    45    15    17    1 
    46    15    79    1 
    47    16    80    1 
    48    17    18    1 
    49    17    19    1 
    50    17    81    1 
    51    18    82    1 
    52    19    20    1 
    53    19    22    1 
    54    19    83    1 
    55    20    21    1 
    56    20    84    1 
    57    20    85    1 
    58    21    86    1 
    59    22    23    am
    60    22    87    1 
    61    23    24    2 
    62    23    25    1 
    63    25    26    1 
    64    25    27    1 
    65    25    29    1 
    66    26    88    1 
    67    27    28    1 
    68    27    89    1 
    69    27    90    1 
    70    28    91    1 
    71    28    92    1 
    72    28    93    1 
    73    29    30    2 
    74    29    48    2 
    75    30    31    1 
    76    30    33    1 
    77    31    32    1 
    78    31    94    1 
    79    31    95    1 
    80    32    96    1 
    81    33    34    2 
    82    33    35    am
    83    35    36    1 
    84    35    47    am
    85    36    37    1 
    86    36    97    1 
    87    36    98    1 
    88    37    38    ar
    89    37    46    ar
    90    38    39    ar
    91    38    99    1 
    92    39    40    ar
    93    39    44    ar
    94    40    41    ar
    95    40   100    1 
    96    41    42    ar
    97    41    49    1 
    98    42    43    ar
    99    42   101    1 
   100    43    44    ar
   101    43   102    1 
   102    44    45    ar
   103    45    46    ar
   104    46    47    1 
   105    47    48    2 
   106    48   103    1 
   107    49   104    1 
@<TRIPOS>MOLECULE
Molecule Pharmacophore_all_5.mol2
    34     0
SMALL
NO_CHARGES
@<TRIPOS>ATOM
      1 DON        -6.3418    2.6313   -0.7934 HB    0     HB      0.0000
      2 DON        -5.6665    1.4839    1.5839 HB    1     HB      0.0000
      3 DON        -5.8346   -2.3028   -0.7395 HB    2     HB      0.0000
      4 DON        -3.4158   -0.9566    0.0229 HB    3     HB      0.0000
      5 DON        -0.8456   -3.2994    0.7376 HB    4     HB      0.0000
      6 DON        -2.8120    1.1073    2.0200 HB    5     HB      0.0000
      7 DON         9.4585    1.8790    0.2397 HB    6     HB      0.0000
      8 ACC        -6.3418    2.6313   -0.7934 HB    7     HB      0.0000
      9 ACC        -5.6665    1.4839    1.5839 HB    8     HB      0.0000
     10 ACC        -5.8346   -2.3028   -0.7395 HB    9     HB      0.0000
     11 ACC        -2.7747   -1.8521    2.0100 HB    10    HB      0.0000
     12 ACC        -0.8456   -3.2994    0.7376 HB    11    HB      0.0000
     13 ACC        -2.8120    1.1073    2.0200 HB    12    HB      0.0000
     14 ACC        -0.5370    1.8901    2.8802 HB    13    HB      0.0000
     15 ACC         4.2616   -0.0681    0.1315 HB    14    HB      0.0000
     16 ACC         9.4585    1.8790    0.2397 HB    15    HB      0.0000
     17 AR          0.6191    0.1005    1.2428 AR    16    AR      0.0000
     18 AR          4.5650    1.0783    0.9024 AR    17    AR      0.0000
     19 AR          6.8548    0.9259    0.2006 AR    18    AR      0.0000
     20 HYD        -6.8148    0.4289   -2.0988 HYD   19    HYD     0.0000
     21 HYD        -7.5609   -0.0134   -3.0398 HYD   20    HYD     0.0000
     22 HYD        -8.3157   -0.4600   -3.9763 HYD   21    HYD     0.0000
     23 HYD        -9.0757   -0.9068   -4.9039 HYD   22    HYD     0.0000
     24 HYD        -9.8437   -1.3567   -5.8285 HYD   23    HYD     0.0000
     25 HYD       -10.6160   -1.8064   -6.7454 HYD   24    HYD     0.0000
     26 HYD       -11.3935   -2.2578   -7.6602 HYD   25    HYD     0.0000
     27 HYD       -12.1739   -2.7093   -8.5694 HYD   26    HYD     0.0000
     28 HYD       -12.9579   -3.1626   -9.4772 HYD   27    HYD     0.0000
     29 HYD       -13.7438   -3.6153  -10.3821 HYD   28    HYD     0.0000
     30 HYD       -14.5310   -4.0685  -11.2860 HYD   29    HYD     0.0000
     31 HYD       -15.3197   -4.5218  -12.1887 HYD   30    HYD     0.0000
     32 HYD       -16.1086   -4.9760  -13.0896 HYD   31    HYD     0.0000
     33 HYD       -16.4442   -4.8442  -13.7707 HYD   32    HYD     0.0000
     34 HYD        -1.6400   -3.5478   -1.8899 HYD   33    HYD     0.0000
@<TRIPOS>BOND
@<TRIPOS>MOLECULE
Pharmacophore_all_6.mol2
    32    34
SMALL
NO_CHARGES
@<TRIPOS>ATOM
      1 C1          0.3651   -0.4559    1.9613 C.ar  1     UNK1   -0.0494
      2 C2          1.7131   -0.2729    2.3065 C.ar  1     UNK1   -0.0288
      3 C3          2.7121   -0.3363    1.3204 C.ar  1     UNK1    0.1022
      4 C4          2.3532   -0.5847   -0.0212 C.ar  1     UNK1    0.1028
      5 C5          1.0015   -0.7660   -0.3607 C.ar  1     UNK1   -0.0197
      6 C6         -0.0020   -0.7171    0.6279 C.ar  1     UNK1    0.0107
      7 C7         -1.4183   -0.8807    0.2831 C.2   1     UNK1    0.1237
      8 C8         -1.9671   -2.1535    0.2223 C.2   1     UNK1    0.1518
      9 C9         -3.3108   -2.3155   -0.0970 C.2   1     UNK1    0.2231
     10 O1         -3.7802   -3.4513   -0.1380 O.2   1     UNK1   -0.2843
     11 C10        -4.0736   -1.0779   -0.3620 C.ar  1     UNK1    0.0846
     12 C11        -5.4448   -1.1057   -0.7250 C.ar  1     UNK1    0.0884
     13 C12        -6.1443    0.0896   -0.9664 C.ar  1     UNK1   -0.0013
     14 C13        -5.4960    1.3274   -0.8510 C.ar  1     UNK1    0.0775
     15 C14        -4.1436    1.3694   -0.4923 C.ar  1     UNK1   -0.0005
     16 C15        -3.4396    0.1790   -0.2515 C.ar  1     UNK1    0.0990
     17 O2         -2.1160    0.2809    0.0948 O.3   1     UNK1   -0.3051
     18 O3         -6.1757    2.4868   -1.0841 O.3   1     UNK1   -0.3597
     19 O4         -6.1420   -2.2743   -0.8569 O.3   1     UNK1   -0.3590
     20 O5         -1.2134   -3.2492    0.4915 O.3   1     UNK1   -0.3545
     21 O6          3.2950   -0.6531   -1.0097 O.3   1     UNK1   -0.3573
     22 O7          4.0153   -0.1420    1.6881 O.3   1     UNK1   -0.3573
     23 H1         -0.4126   -0.3946    2.7410 H     1     UNK1    0.0625
     24 H2          1.9896   -0.0785    3.3565 H     1     UNK1    0.0644
     25 H5          0.7229   -0.9485   -1.4122 H     1     UNK1    0.0651
     26 H12        -7.2100    0.0535   -1.2483 H     1     UNK1    0.0669
     27 H14        -3.6295    2.3407   -0.3986 H     1     UNK1    0.0669
     28 H3         -5.7365    3.3255   -1.0060 H     1     UNK1    0.2173
     29 H4         -7.0601   -2.2929   -1.1001 H     1     UNK1    0.2173
     30 H5         -1.5892   -4.1207    0.4498 H     1     UNK1    0.2175
     31 H6          3.0534   -0.8204   -1.9131 H     1     UNK1    0.2174
     32 H7          4.6907   -0.1849    1.0214 H     1     UNK1    0.2174
@<TRIPOS>BOND
     1     1     2    ar
     2     1     6    ar
     3     1    23    1 
     4     2     3    ar
     5     2    24    1 
     6     3     4    ar
     7     3    22    1 
     8     4     5    ar
     9     4    21    1 
    10     5     6    ar
    11     5    25    1 
    12     6     7    1 
    13     7     8    2 
    14     7    17    1 
    15     8     9    2 
    16     8    20    1 
    17     9    10    2 
    18     9    11    1 
    19    11    12    ar
    20    11    16    ar
    21    12    13    ar
    22    12    19    1 
    23    13    14    ar
    24    13    26    1 
    25    14    15    ar
    26    14    18    1 
    27    15    16    ar
    28    15    27    1 
    29    16    17    1 
    30    18    28    1 
    31    19    29    1 
    32    20    30    1 
    33    21    31    1 
    34    22    32    1 
@<TRIPOS>MOLECULE
Molecule Pharmacophore_all_6.mol2
    15     0
SMALL
NO_CHARGES
@<TRIPOS>ATOM
      1 DON        -6.1757    2.4868   -1.0841 HB    0     HB      0.0000
      2 DON        -6.1420   -2.2743   -0.8569 HB    1     HB      0.0000
      3 DON        -1.2134   -3.2492    0.4915 HB    2     HB      0.0000
      4 DON         3.2950   -0.6531   -1.0097 HB    3     HB      0.0000
      5 DON         4.0153   -0.1420    1.6881 HB    4     HB      0.0000
      6 ACC        -3.7802   -3.4513   -0.1380 HB    5     HB      0.0000
      7 ACC        -2.1160    0.2809    0.0948 HB    6     HB      0.0000
      8 ACC        -6.1757    2.4868   -1.0841 HB    7     HB      0.0000
      9 ACC        -6.1420   -2.2743   -0.8569 HB    8     HB      0.0000
     10 ACC        -1.2134   -3.2492    0.4915 HB    9     HB      0.0000
     11 ACC         3.2950   -0.6531   -1.0097 HB    10    HB      0.0000
     12 ACC         4.0153   -0.1420    1.6881 HB    11    HB      0.0000
     13 AR          1.3572   -0.5221    0.9724 AR    12    AR      0.0000
     14 AR         -2.7209   -0.9946   -0.0184 AR    13    AR      0.0000
     15 AR         -4.7903    0.1303   -0.6080 AR    14    AR      0.0000
@<TRIPOS>BOND
