C38H55N3O8 - Prup3
APtclcactv05182112463D 0   0.00000     0.00000     1
 
104107  0  0  1  0  0  0  0  0999 V2000
   18.0830   -4.0770   -1.0540 C   0  0  0  0  0  0  0  0  0  0  0  0
   17.2040   -2.8110   -1.0350 C   0  0  0  0  0  0  0  0  0  0  0  0
   15.7170   -3.1380   -0.7690 C   0  0  0  0  0  0  0  0  0  0  0  0
   14.8380   -1.8680   -0.7490 C   0  0  0  0  0  0  0  0  0  0  0  0
   13.3520   -2.1930   -0.4800 C   0  0  0  0  0  0  0  0  0  0  0  0
   12.4750   -0.9210   -0.4580 C   0  0  0  0  0  0  0  0  0  0  0  0
   10.9890   -1.2420   -0.1830 C   0  0  0  0  0  0  0  0  0  0  0  0
   10.1180    0.0340   -0.1570 C   0  0  0  0  0  0  0  0  0  0  0  0
    8.6320   -0.2780    0.1270 C   0  0  0  0  0  0  0  0  0  0  0  0
    7.7690    1.0030    0.1600 C   0  0  0  0  0  0  0  0  0  0  0  0
    6.2830    0.7030    0.4570 C   0  0  0  0  0  0  0  0  0  0  0  0
    5.4330    1.9920    0.5000 C   0  0  0  0  0  0  0  0  0  0  0  0
    3.9480    1.7060    0.8120 C   0  0  0  0  0  0  0  0  0  0  0  0
    3.1120    3.0070    0.8660 C   0  0  0  0  0  0  0  0  0  0  0  0
    1.6040    2.7590    1.1350 C   0  0  1  0  0  0  0  0  0  0  0  0
    1.4560    2.0900    2.3900 O   0  0  0  0  0  0  0  0  0  0  0  0
    0.7720    4.0760    1.1290 C   0  0  1  0  0  0  0  0  0  0  0  0
    0.9690    4.7640   -0.1110 O   0  0  0  0  0  0  0  0  0  0  0  0
   -0.7490    3.8310    1.3660 C   0  0  1  0  0  0  0  0  0  0  0  0
   -1.5070    5.1380    1.7190 C   0  0  0  0  0  0  0  0  0  0  0  0
   -1.4710    6.0990    0.6610 O   0  0  0  0  0  0  0  0  0  0  0  0
   -1.3640    3.1500    0.2160 N   0  0  0  0  0  0  0  0  0  0  0  0
   -2.4410    2.2880    0.3280 C   0  0  0  0  0  0  0  0  0  0  0  0
   -3.1680    2.3060    1.3090 O   0  0  0  0  0  0  0  0  0  0  0  0
   -2.6790    1.3000   -0.8430 C   0  0  1  0  0  0  0  0  0  0  0  0
   -3.5630    2.0270   -1.7100 O   0  0  0  0  0  0  0  0  0  0  0  0
   -1.3870    0.9920   -1.6850 C   0  0  0  0  0  0  0  0  0  0  0  0
   -1.0460    1.9790   -2.8320 C   0  0  0  0  0  0  0  0  0  0  0  0
   -3.3500    0.0010   -0.3290 C   0  0  0  0  0  0  0  0  0  0  0  0
   -2.6860   -0.9760    0.4520 C   0  0  0  0  0  0  0  0  0  0  0  0
   -1.2160   -0.8960    0.8460 C   0  0  0  0  0  0  0  0  0  0  0  0
   -0.9360    0.2010    1.7100 O   0  0  0  0  0  0  0  0  0  0  0  0
   -3.3810   -2.2070    0.9570 C   0  0  0  0  0  0  0  0  0  0  0  0
   -2.8560   -3.0870    1.6190 O   0  5  0  0  0  0  0  0  0  0  0  0
   -4.7120   -2.2870    0.6010 N   0  3  0  0  0  0  0  0  0  0  0  0
   -5.6600   -3.3620    0.9670 C   0  0  0  0  0  0  0  0  0  0  0  0
   -6.9410   -2.8600    0.3160 C   0  0  0  0  0  0  0  0  0  0  0  0
   -8.2210   -3.4250    0.3000 C   0  0  0  0  0  0  0  0  0  0  0  0
   -9.2230   -2.7120   -0.3920 C   0  0  0  0  0  0  0  0  0  0  0  0
  -10.5330   -3.2220   -0.4470 C   0  0  0  0  0  0  0  0  0  0  0  0
  -11.5350   -2.5180   -1.1330 C   0  0  0  0  0  0  0  0  0  0  0  0
  -11.2290   -1.3040   -1.7660 C   0  0  0  0  0  0  0  0  0  0  0  0
   -9.9220   -0.7910   -1.7140 C   0  0  0  0  0  0  0  0  0  0  0  0
   -8.9020   -1.4790   -1.0320 C   0  0  0  0  0  0  0  0  0  0  0  0
   -7.6530   -0.9550   -1.0000 N   0  0  0  0  0  0  0  0  0  0  0  0
   -6.7170   -1.6550   -0.3330 C   0  0  0  0  0  0  0  0  0  0  0  0
   -5.3230   -1.3150   -0.1440 C   0  0  0  0  0  0  0  0  0  0  0  0
   -4.7030   -0.1890   -0.6140 C   0  0  0  0  0  0  0  0  0  0  0  0
  -12.8060   -3.0100   -1.1870 O   0  0  0  0  0  0  0  0  0  0  0  0
   19.1310   -3.8140   -1.2450 H   0  0  0  0  0  0  0  0  0  0  0  0
   18.0330   -4.6020   -0.0920 H   0  0  0  0  0  0  0  0  0  0  0  0
   17.7560   -4.7680   -1.8420 H   0  0  0  0  0  0  0  0  0  0  0  0
   17.5750   -2.1270   -0.2610 H   0  0  0  0  0  0  0  0  0  0  0  0
   17.3000   -2.2900   -1.9970 H   0  0  0  0  0  0  0  0  0  0  0  0
   15.3500   -3.8240   -1.5440 H   0  0  0  0  0  0  0  0  0  0  0  0
   15.6260   -3.6600    0.1930 H   0  0  0  0  0  0  0  0  0  0  0  0
   15.2070   -1.1820    0.0250 H   0  0  0  0  0  0  0  0  0  0  0  0
   14.9290   -1.3460   -1.7110 H   0  0  0  0  0  0  0  0  0  0  0  0
   12.9820   -2.8780   -1.2550 H   0  0  0  0  0  0  0  0  0  0  0  0
   13.2610   -2.7150    0.4820 H   0  0  0  0  0  0  0  0  0  0  0  0
   12.8480   -0.2350    0.3140 H   0  0  0  0  0  0  0  0  0  0  0  0
   12.5640   -0.4010   -1.4210 H   0  0  0  0  0  0  0  0  0  0  0  0
   10.6130   -1.9240   -0.9570 H   0  0  0  0  0  0  0  0  0  0  0  0
   10.9000   -1.7640    0.7780 H   0  0  0  0  0  0  0  0  0  0  0  0
   10.4990    0.7190    0.6120 H   0  0  0  0  0  0  0  0  0  0  0  0
   10.2030    0.5540   -1.1210 H   0  0  0  0  0  0  0  0  0  0  0  0
    8.2470   -0.9580   -0.6450 H   0  0  0  0  0  0  0  0  0  0  0  0
    8.5460   -0.8000    1.0890 H   0  0  0  0  0  0  0  0  0  0  0  0
    8.1620    1.6850    0.9250 H   0  0  0  0  0  0  0  0  0  0  0  0
    7.8510    1.5220   -0.8050 H   0  0  0  0  0  0  0  0  0  0  0  0
    5.8860    0.0270   -0.3120 H   0  0  0  0  0  0  0  0  0  0  0  0
    6.2020    0.1800    1.4190 H   0  0  0  0  0  0  0  0  0  0  0  0
    5.8400    2.6700    1.2610 H   0  0  0  0  0  0  0  0  0  0  0  0
    5.5100    2.5100   -0.4650 H   0  0  0  0  0  0  0  0  0  0  0  0
    3.5340    1.0380    0.0450 H   0  0  0  0  0  0  0  0  0  0  0  0
    3.8770    1.1770    1.7720 H   0  0  0  0  0  0  0  0  0  0  0  0
    3.5170    3.6720    1.6400 H   0  0  0  0  0  0  0  0  0  0  0  0
    3.2320    3.5300   -0.0910 H   0  0  0  0  0  0  0  0  0  0  0  0
    1.2180    2.1120    0.3380 H   0  0  0  0  0  0  0  0  0  0  0  0
    1.9130    2.6220    3.0650 H   0  0  0  0  0  0  0  0  0  0  0  0
    1.1430    4.7070    1.9470 H   0  0  0  0  0  0  0  0  0  0  0  0
    0.2910    5.4700   -0.1460 H   0  0  0  0  0  0  0  0  0  0  0  0
   -0.8500    3.1660    2.2350 H   0  0  0  0  0  0  0  0  0  0  0  0
   -2.5510    4.8840    1.9480 H   0  0  0  0  0  0  0  0  0  0  0  0
   -1.0700    5.5690    2.6280 H   0  0  0  0  0  0  0  0  0  0  0  0
   -2.0620    6.8340    0.9070 H   0  0  0  0  0  0  0  0  0  0  0  0
   -0.8250    3.1160   -0.6400 H   0  0  0  0  0  0  0  0  0  0  0  0
   -4.2740    2.3870   -1.1490 H   0  0  0  0  0  0  0  0  0  0  0  0
   -0.5120    0.9620   -1.0270 H   0  0  0  0  0  0  0  0  0  0  0  0
   -1.4770   -0.0080   -2.1270 H   0  0  0  0  0  0  0  0  0  0  0  0
   -0.0790    1.7170   -3.2800 H   0  0  0  0  0  0  0  0  0  0  0  0
   -1.7990    1.9390   -3.6290 H   0  0  0  0  0  0  0  0  0  0  0  0
   -0.9780    3.0130   -2.4740 H   0  0  0  0  0  0  0  0  0  0  0  0
   -0.9120   -1.8110    1.3660 H   0  0  0  0  0  0  0  0  0  0  0  0
   -0.5870   -0.8690   -0.0470 H   0  0  0  0  0  0  0  0  0  0  0  0
    0.0120    0.1850    1.9410 H   0  0  0  0  0  0  0  0  0  0  0  0
   -5.3420   -4.3220    0.5410 H   0  0  0  0  0  0  0  0  0  0  0  0
   -5.7640   -3.4320    2.0570 H   0  0  0  0  0  0  0  0  0  0  0  0
   -8.4280   -4.3660    0.8000 H   0  0  0  0  0  0  0  0  0  0  0  0
  -10.7720   -4.1620    0.0420 H   0  0  0  0  0  0  0  0  0  0  0  0
  -12.0040   -0.7590   -2.2970 H   0  0  0  0  0  0  0  0  0  0  0  0
   -9.6990    0.1510   -2.2080 H   0  0  0  0  0  0  0  0  0  0  0  0
   -5.2930    0.5180   -1.1840 H   0  0  0  0  0  0  0  0  0  0  0  0
  -12.8420   -3.8510   -0.6990 H   0  0  0  0  0  0  0  0  0  0  0  0
  1 51  1  0  0  0  0
  1 50  1  0  0  0  0
  1 52  1  0  0  0  0
  1  2  1  0  0  0  0
  2 53  1  0  0  0  0
  2 54  1  0  0  0  0
  2  3  1  0  0  0  0
  3 55  1  0  0  0  0
  3 56  1  0  0  0  0
  3  4  1  0  0  0  0
  4 57  1  0  0  0  0
  4 58  1  0  0  0  0
  4  5  1  0  0  0  0
  5 60  1  0  0  0  0
  5 59  1  0  0  0  0
  5  6  1  0  0  0  0
  6 62  1  0  0  0  0
  6 61  1  0  0  0  0
  6  7  1  0  0  0  0
  7 64  1  0  0  0  0
  7 63  1  0  0  0  0
  7  8  1  0  0  0  0
  8 65  1  0  0  0  0
  8 66  1  0  0  0  0
  8  9  1  0  0  0  0
  9 68  1  0  0  0  0
  9 67  1  0  0  0  0
  9 10  1  0  0  0  0
 10 69  1  0  0  0  0
 10 70  1  0  0  0  0
 10 11  1  0  0  0  0
 11 72  1  0  0  0  0
 11 71  1  0  0  0  0
 11 12  1  0  0  0  0
 12 73  1  0  0  0  0
 12 74  1  0  0  0  0
 12 13  1  0  0  0  0
 13 75  1  0  0  0  0
 13 76  1  0  0  0  0
 13 14  1  0  0  0  0
 14 78  1  0  0  0  0
 14 77  1  0  0  0  0
 14 15  1  0  0  0  0
 15 79  1  0  0  0  0
 15 16  1  0  0  0  0
 15 17  1  0  0  0  0
 16 80  1  0  0  0  0
 17 81  1  0  0  0  0
 17 18  1  0  0  0  0
 17 19  1  0  0  0  0
 18 82  1  0  0  0  0
 19 83  1  0  0  0  0
 19 22  1  0  0  0  0
 19 20  1  0  0  0  0
 20 85  1  0  0  0  0
 20 84  1  0  0  0  0
 20 21  1  0  0  0  0
 21 86  1  0  0  0  0
 22 87  1  0  0  0  0
 22 23  1  0  0  0  0
 23 24  2  0  0  0  0
 23 25  1  0  0  0  0
 25 26  1  0  0  0  0
 25 29  1  0  0  0  0
 25 27  1  0  0  0  0
 26 88  1  0  0  0  0
 27 89  1  0  0  0  0
 27 90  1  0  0  0  0
 27 28  1  0  0  0  0
 28 93  1  0  0  0  0
 28 92  1  0  0  0  0
 28 91  1  0  0  0  0
 29 48  2  0  0  0  0
 29 30  1  0  0  0  0
 30 33  2  0  0  0  0
 30 31  1  0  0  0  0
 31 95  1  0  0  0  0
 31 94  1  0  0  0  0
 31 32  1  0  0  0  0
 32 96  1  0  0  0  0
 33 34  1  0  0  0  0
 33 35  1  0  0  0  0
 35 47  2  0  0  0  0
 35 36  1  0  0  0  0
 36 98  1  0  0  0  0
 36 97  1  0  0  0  0
 36 37  1  0  0  0  0
 37 46  2  0  0  0  0
 37 38  1  0  0  0  0
 38 99  1  0  0  0  0
 38 39  2  0  0  0  0
 39 40  1  0  0  0  0
 39 44  1  0  0  0  0
 40100  1  0  0  0  0
 40 41  2  0  0  0  0
 41 49  1  0  0  0  0
 41 42  1  0  0  0  0
 42101  1  0  0  0  0
 42 43  2  0  0  0  0
 43102  1  0  0  0  0
 43 44  1  0  0  0  0
 44 45  2  0  0  0  0
 45 46  1  0  0  0  0
 46 47  1  0  0  0  0
 47 48  1  0  0  0  0
 48103  1  0  0  0  0
 49104  1  0  0  0  0
M  CHG  2  34  -1  35   1
M  END
> <UNIQUE_SMILES>
CCCCCCCCCCCCCCC(O)C(O)C(CO)NC(=O)C(O)(CC)C1=CC2=[N+](CC3=C2N=C4C=CC(=CC4=C3)O)C(=C1CO)[O-]

$$$$
C27H30O17 - Q3OS
APtclcactv05182113053D 0   0.00000     0.00000     1
 
 74 78  0  0  1  0  0  0  0  0999 V2000
    0.9390   -3.0630    1.0510 C   0  0  0  0  0  0  0  0  0  0  0  0
    0.3200   -3.9210    1.9740 C   0  0  0  0  0  0  0  0  0  0  0  0
    0.3850   -3.6440    3.3490 C   0  0  0  0  0  0  0  0  0  0  0  0
    1.0900   -2.5100    3.8000 C   0  0  0  0  0  0  0  0  0  0  0  0
    1.7190   -1.6600    2.8760 C   0  0  0  0  0  0  0  0  0  0  0  0
    1.6290   -1.9180    1.4930 C   0  0  0  0  0  0  0  0  0  0  0  0
    2.2280   -1.0140    0.5080 C   0  0  0  0  0  0  0  0  0  0  0  0
    1.8480    0.3190    0.4900 C   0  0  0  0  0  0  0  0  0  0  0  0
    2.3500    1.1880   -0.4750 C   0  0  0  0  0  0  0  0  0  0  0  0
    2.0500    2.3800   -0.4740 O   0  0  0  0  0  0  0  0  0  0  0  0
    3.2490    0.5770   -1.4770 C   0  0  0  0  0  0  0  0  0  0  0  0
    3.8050    1.3300   -2.5460 C   0  0  0  0  0  0  0  0  0  0  0  0
    4.6400    0.7160   -3.4950 C   0  0  0  0  0  0  0  0  0  0  0  0
    4.9350   -0.6500   -3.4040 C   0  0  0  0  0  0  0  0  0  0  0  0
    4.3920   -1.4070   -2.3580 C   0  0  0  0  0  0  0  0  0  0  0  0
    3.5580   -0.8000   -1.4060 C   0  0  0  0  0  0  0  0  0  0  0  0
    3.0450   -1.6010   -0.4170 O   0  0  0  0  0  0  0  0  0  0  0  0
    5.7410   -1.2470   -4.3290 O   0  0  0  0  0  0  0  0  0  0  0  0
    3.5570    2.6640   -2.7100 O   0  0  0  0  0  0  0  0  0  0  0  0
    0.9820    0.7780    1.4630 O   0  0  0  0  0  0  0  0  0  0  0  0
   -0.2880    1.3750    1.1260 C   0  0  1  0  0  0  0  0  0  0  0  0
   -1.2780    0.2720    0.6670 C   0  0  1  0  0  0  0  0  0  0  0  0
   -1.7340   -0.6110    1.8640 C   0  0  1  0  0  0  0  0  0  0  0  0
   -2.2030    0.2250    3.0780 C   0  0  1  0  0  0  0  0  0  0  0  0
   -1.0980    1.2470    3.4570 C   0  0  1  0  0  0  0  0  0  0  0  0
   -0.8110    2.0530    2.2900 O   0  0  0  0  0  0  0  0  0  0  0  0
   -1.5260    2.1850    4.6080 C   0  0  0  0  0  0  0  0  0  0  0  0
   -0.3860    2.8130    5.1960 O   0  0  0  0  0  0  0  0  0  0  0  0
   -3.4390    0.8930    2.8050 O   0  0  0  0  0  0  0  0  0  0  0  0
   -2.6940   -1.6040    1.4880 O   0  0  0  0  0  0  0  0  0  0  0  0
   -2.3910    0.9650    0.0480 O   0  0  0  0  0  0  0  0  0  0  0  0
   -3.1020    0.2610   -0.9930 C   0  0  1  0  0  0  0  0  0  0  0  0
   -4.1430    1.2360   -1.6000 C   0  0  1  0  0  0  0  0  0  0  0  0
   -3.4290    2.3700   -2.3880 C   0  0  1  0  0  0  0  0  0  0  0  0
   -2.3760    1.8370   -3.3940 C   0  0  1  0  0  0  0  0  0  0  0  0
   -1.4030    0.8600   -2.6810 C   0  0  1  0  0  0  0  0  0  0  0  0
   -2.1760   -0.1710   -2.0170 O   0  0  0  0  0  0  0  0  0  0  0  0
   -0.4220    0.1660   -3.6510 C   0  0  0  0  0  0  0  0  0  0  0  0
    0.6510   -0.4440   -2.9300 O   0  0  0  0  0  0  0  0  0  0  0  0
   -2.9970    1.2050   -4.5180 O   0  0  0  0  0  0  0  0  0  0  0  0
   -4.3560    3.2540   -3.0290 O   0  0  0  0  0  0  0  0  0  0  0  0
   -5.0800    0.5190   -2.4130 O   0  0  0  0  0  0  0  0  0  0  0  0
    1.1490   -2.2160    5.1310 O   0  0  0  0  0  0  0  0  0  0  0  0
   -0.2460   -4.4700    4.2370 O   0  0  0  0  0  0  0  0  0  0  0  0
    0.8670   -3.2760   -0.0120 H   0  0  0  0  0  0  0  0  0  0  0  0
   -0.2220   -4.7930    1.6180 H   0  0  0  0  0  0  0  0  0  0  0  0
    2.2570   -0.7860    3.2340 H   0  0  0  0  0  0  0  0  0  0  0  0
    5.0560    1.3070   -4.3070 H   0  0  0  0  0  0  0  0  0  0  0  0
    4.6140   -2.4680   -2.2860 H   0  0  0  0  0  0  0  0  0  0  0  0
    6.0360   -0.5790   -4.9740 H   0  0  0  0  0  0  0  0  0  0  0  0
    2.9860    2.9680   -1.9750 H   0  0  0  0  0  0  0  0  0  0  0  0
   -0.1620    2.1110    0.3250 H   0  0  0  0  0  0  0  0  0  0  0  0
   -0.7650   -0.3650   -0.0650 H   0  0  0  0  0  0  0  0  0  0  0  0
   -0.8440   -1.1450    2.2050 H   0  0  0  0  0  0  0  0  0  0  0  0
   -2.3440   -0.4530    3.9290 H   0  0  0  0  0  0  0  0  0  0  0  0
   -0.1980    0.7010    3.7710 H   0  0  0  0  0  0  0  0  0  0  0  0
   -2.2230    2.9400    4.2210 H   0  0  0  0  0  0  0  0  0  0  0  0
   -2.0540    1.6010    5.3720 H   0  0  0  0  0  0  0  0  0  0  0  0
   -0.7070    3.4550    5.8540 H   0  0  0  0  0  0  0  0  0  0  0  0
   -3.2900    1.4240    1.9990 H   0  0  0  0  0  0  0  0  0  0  0  0
   -3.0170   -2.0270    2.3040 H   0  0  0  0  0  0  0  0  0  0  0  0
   -3.6150   -0.6110   -0.5710 H   0  0  0  0  0  0  0  0  0  0  0  0
   -4.6900    1.6980   -0.7680 H   0  0  0  0  0  0  0  0  0  0  0  0
   -2.8750    2.9580   -1.6440 H   0  0  0  0  0  0  0  0  0  0  0  0
   -1.7950    2.6950   -3.7540 H   0  0  0  0  0  0  0  0  0  0  0  0
   -0.8160    1.4280   -1.9480 H   0  0  0  0  0  0  0  0  0  0  0  0
   -0.9670   -0.5870   -4.2360 H   0  0  0  0  0  0  0  0  0  0  0  0
   -0.0200    0.9090   -4.3520 H   0  0  0  0  0  0  0  0  0  0  0  0
    1.1250   -1.0220   -3.5550 H   0  0  0  0  0  0  0  0  0  0  0  0
   -3.8320    1.6850   -4.6780 H   0  0  0  0  0  0  0  0  0  0  0  0
   -5.0660    3.4530   -2.3930 H   0  0  0  0  0  0  0  0  0  0  0  0
   -5.4480   -0.2060   -1.8790 H   0  0  0  0  0  0  0  0  0  0  0  0
    0.6900   -2.9300    5.6110 H   0  0  0  0  0  0  0  0  0  0  0  0
   -0.6470   -5.2100    3.7500 H   0  0  0  0  0  0  0  0  0  0  0  0
  1 45  1  0  0  0  0
  1  2  1  0  0  0  0
  1  6  2  0  0  0  0
  2 46  1  0  0  0  0
  2  3  2  0  0  0  0
  3 44  1  0  0  0  0
  3  4  1  0  0  0  0
  4 43  1  0  0  0  0
  4  5  2  0  0  0  0
  5 47  1  0  0  0  0
  5  6  1  0  0  0  0
  6  7  1  0  0  0  0
  7 17  1  0  0  0  0
  7  8  2  0  0  0  0
  8 20  1  0  0  0  0
  8  9  1  0  0  0  0
  9 10  2  0  0  0  0
  9 11  1  0  0  0  0
 11 16  1  0  0  0  0
 11 12  2  0  0  0  0
 12 19  1  0  0  0  0
 12 13  1  0  0  0  0
 13 48  1  0  0  0  0
 13 14  2  0  0  0  0
 14 18  1  0  0  0  0
 14 15  1  0  0  0  0
 15 49  1  0  0  0  0
 15 16  2  0  0  0  0
 16 17  1  0  0  0  0
 18 50  1  0  0  0  0
 19 51  1  0  0  0  0
 20 21  1  0  0  0  0
 21 52  1  0  0  0  0
 21 26  1  0  0  0  0
 21 22  1  0  0  0  0
 22 53  1  0  0  0  0
 22 31  1  0  0  0  0
 22 23  1  0  0  0  0
 23 54  1  0  0  0  0
 23 30  1  0  0  0  0
 23 24  1  0  0  0  0
 24 55  1  0  0  0  0
 24 29  1  0  0  0  0
 24 25  1  0  0  0  0
 25 56  1  0  0  0  0
 25 26  1  0  0  0  0
 25 27  1  0  0  0  0
 27 58  1  0  0  0  0
 27 57  1  0  0  0  0
 27 28  1  0  0  0  0
 28 59  1  0  0  0  0
 29 60  1  0  0  0  0
 30 61  1  0  0  0  0
 31 32  1  0  0  0  0
 32 62  1  0  0  0  0
 32 37  1  0  0  0  0
 32 33  1  0  0  0  0
 33 63  1  0  0  0  0
 33 42  1  0  0  0  0
 33 34  1  0  0  0  0
 34 64  1  0  0  0  0
 34 41  1  0  0  0  0
 34 35  1  0  0  0  0
 35 65  1  0  0  0  0
 35 40  1  0  0  0  0
 35 36  1  0  0  0  0
 36 66  1  0  0  0  0
 36 37  1  0  0  0  0
 36 38  1  0  0  0  0
 38 68  1  0  0  0  0
 38 67  1  0  0  0  0
 38 39  1  0  0  0  0
 39 69  1  0  0  0  0
 40 70  1  0  0  0  0
 41 71  1  0  0  0  0
 42 72  1  0  0  0  0
 43 73  1  0  0  0  0
 44 74  1  0  0  0  0
M  END
> <UNIQUE_SMILES>
OCC1OC(OC2C(O)C(O)C(CO)OC2OC3=C(OC4=CC(=CC(=C4C3=O)O)O)C5=CC=C(O)C(=C5)O)C(O)C(O)C1O

$$$$
C18H30O5 - PPE1
APtclcactv05182113063D 0   0.00000     0.00000     1
 
 53 53  0  0  1  0  0  0  0  0999 V2000
   -3.8130    3.3670    0.9980 C   0  0  0  0  0  0  0  0  0  0  0  0
   -3.6100    1.8510    0.7860 C   0  0  0  0  0  0  0  0  0  0  0  0
   -4.9230    1.0760    0.4760 C   0  0  1  0  0  0  0  0  0  0  0  0
   -5.5850    1.4310   -0.8780 C   0  0  1  0  0  0  0  0  0  0  0  0
   -6.4930    0.2300   -1.2090 C   0  0  0  0  0  0  0  0  0  0  0  0
   -5.8700   -0.9520   -0.4790 C   0  0  0  0  0  0  0  0  0  0  0  0
   -6.0110   -2.1100   -0.8310 O   0  0  0  0  0  0  0  0  0  0  0  0
   -4.7630   -0.4690    0.4550 C   0  0  1  0  0  0  0  0  0  0  0  0
   -3.4080   -0.9360   -0.0470 C   0  0  0  0  0  0  0  0  0  0  0  0
   -2.4960   -1.5520    0.7120 C   0  0  0  0  0  0  0  0  0  0  0  0
   -1.1380   -1.9950    0.2120 C   0  0  1  0  0  0  0  0  0  0  0  0
   -0.0440   -0.9850    0.6290 C   0  0  0  0  0  0  0  0  0  0  0  0
    1.3440   -1.3220    0.0350 C   0  0  0  0  0  0  0  0  0  0  0  0
    2.4180   -0.2910    0.4510 C   0  0  0  0  0  0  0  0  0  0  0  0
    3.8060   -0.6300   -0.1370 C   0  0  0  0  0  0  0  0  0  0  0  0
    4.8850    0.3880    0.2940 C   0  0  0  0  0  0  0  0  0  0  0  0
    6.2730    0.0470   -0.2930 C   0  0  0  0  0  0  0  0  0  0  0  0
    7.3560    1.0590    0.1470 C   0  0  0  0  0  0  0  0  0  0  0  0
    8.7460    0.7470   -0.4190 C   0  0  0  0  0  0  0  0  0  0  0  0
    9.0100   -0.1840   -1.1570 O   0  0  0  0  0  0  0  0  0  0  0  0
    9.6970    1.6170   -0.0240 O   0  0  0  0  0  0  0  0  0  0  0  0
   -0.8470   -3.2890    0.7340 O   0  0  0  0  0  0  0  0  0  0  0  0
   -6.3470    2.6350   -0.8020 O   0  0  0  0  0  0  0  0  0  0  0  0
   -2.8740    3.8360    1.3140 H   0  0  0  0  0  0  0  0  0  0  0  0
   -4.1360    3.8580    0.0720 H   0  0  0  0  0  0  0  0  0  0  0  0
   -4.5660    3.5570    1.7730 H   0  0  0  0  0  0  0  0  0  0  0  0
   -2.8820    1.7050   -0.0220 H   0  0  0  0  0  0  0  0  0  0  0  0
   -3.1600    1.4350    1.6970 H   0  0  0  0  0  0  0  0  0  0  0  0
   -5.6470    1.3080    1.2690 H   0  0  0  0  0  0  0  0  0  0  0  0
   -4.8040    1.5090   -1.6460 H   0  0  0  0  0  0  0  0  0  0  0  0
   -7.5100    0.3850   -0.8270 H   0  0  0  0  0  0  0  0  0  0  0  0
   -6.5340    0.0420   -2.2900 H   0  0  0  0  0  0  0  0  0  0  0  0
   -4.9560   -0.8640    1.4620 H   0  0  0  0  0  0  0  0  0  0  0  0
   -3.2030   -0.7330   -1.0970 H   0  0  0  0  0  0  0  0  0  0  0  0
   -2.6980   -1.7550    1.7620 H   0  0  0  0  0  0  0  0  0  0  0  0
   -1.1620   -2.0490   -0.8850 H   0  0  0  0  0  0  0  0  0  0  0  0
   -0.3400    0.0180    0.2960 H   0  0  0  0  0  0  0  0  0  0  0  0
    0.0220   -0.9480    1.7240 H   0  0  0  0  0  0  0  0  0  0  0  0
    1.6560   -2.3210    0.3670 H   0  0  0  0  0  0  0  0  0  0  0  0
    1.2740   -1.3550   -1.0600 H   0  0  0  0  0  0  0  0  0  0  0  0
    2.1140    0.7090    0.1170 H   0  0  0  0  0  0  0  0  0  0  0  0
    2.4860   -0.2590    1.5470 H   0  0  0  0  0  0  0  0  0  0  0  0
    4.1040   -1.6360    0.1880 H   0  0  0  0  0  0  0  0  0  0  0  0
    3.7420   -0.6530   -1.2330 H   0  0  0  0  0  0  0  0  0  0  0  0
    4.5880    1.3940   -0.0310 H   0  0  0  0  0  0  0  0  0  0  0  0
    4.9480    0.4090    1.3900 H   0  0  0  0  0  0  0  0  0  0  0  0
    6.5670   -0.9620    0.0270 H   0  0  0  0  0  0  0  0  0  0  0  0
    6.2120    0.0320   -1.3890 H   0  0  0  0  0  0  0  0  0  0  0  0
    7.0740    2.0710   -0.1720 H   0  0  0  0  0  0  0  0  0  0  0  0
    7.4270    1.0780    1.2420 H   0  0  0  0  0  0  0  0  0  0  0  0
   10.5140    1.3040   -0.4490 H   0  0  0  0  0  0  0  0  0  0  0  0
   -0.8960   -3.2340    1.7040 H   0  0  0  0  0  0  0  0  0  0  0  0
   -6.6890    2.8300   -1.6930 H   0  0  0  0  0  0  0  0  0  0  0  0
  1 24  1  0  0  0  0
  1 25  1  0  0  0  0
  1 26  1  0  0  0  0
  1  2  1  0  0  0  0
  2 27  1  0  0  0  0
  2 28  1  0  0  0  0
  2  3  1  0  0  0  0
  3 29  1  0  0  0  0
  3  4  1  0  0  0  0
  3  8  1  0  0  0  0
  4 30  1  0  0  0  0
  4 23  1  0  0  0  0
  4  5  1  0  0  0  0
  5 31  1  0  0  0  0
  5 32  1  0  0  0  0
  5  6  1  0  0  0  0
  6  7  2  0  0  0  0
  6  8  1  0  0  0  0
  8 33  1  0  0  0  0
  8  9  1  0  0  0  0
  9 34  1  0  0  0  0
  9 10  2  0  0  0  0
 10 35  1  0  0  0  0
 10 11  1  0  0  0  0
 11 36  1  0  0  0  0
 11 22  1  0  0  0  0
 11 12  1  0  0  0  0
 12 37  1  0  0  0  0
 12 38  1  0  0  0  0
 12 13  1  0  0  0  0
 13 40  1  0  0  0  0
 13 39  1  0  0  0  0
 13 14  1  0  0  0  0
 14 41  1  0  0  0  0
 14 42  1  0  0  0  0
 14 15  1  0  0  0  0
 15 44  1  0  0  0  0
 15 43  1  0  0  0  0
 15 16  1  0  0  0  0
 16 46  1  0  0  0  0
 16 45  1  0  0  0  0
 16 17  1  0  0  0  0
 17 48  1  0  0  0  0
 17 47  1  0  0  0  0
 17 18  1  0  0  0  0
 18 50  1  0  0  0  0
 18 49  1  0  0  0  0
 18 19  1  0  0  0  0
 19 20  2  0  0  0  0
 19 21  1  0  0  0  0
 21 51  1  0  0  0  0
 22 52  1  0  0  0  0
 23 53  1  0  0  0  0
M  END
> <UNIQUE_SMILES>
CCC1C(O)CC(=O)C1\C=C\C(O)CCCCCCCC(O)=O

$$$$
C15H10O7 - Quercetin
APtclcactv05182113073D 0   0.00000     0.00000     1
 
 32 34  0  0  0  0  0  0  0  0999 V2000
   -2.3310    1.1340   -1.1470 C   0  0  0  0  0  0  0  0  0  0  0  0
   -3.7080    1.4040   -1.1750 C   0  0  0  0  0  0  0  0  0  0  0  0
   -4.5830    0.7140   -0.3190 C   0  0  0  0  0  0  0  0  0  0  0  0
   -4.0700   -0.2530    0.5710 C   0  0  0  0  0  0  0  0  0  0  0  0
   -2.6900   -0.5180    0.5950 C   0  0  0  0  0  0  0  0  0  0  0  0
   -1.8110    0.1620   -0.2720 C   0  0  0  0  0  0  0  0  0  0  0  0
   -0.3660   -0.0880   -0.2400 C   0  0  0  0  0  0  0  0  0  0  0  0
    0.1120   -1.3760   -0.4340 C   0  0  0  0  0  0  0  0  0  0  0  0
    1.4810   -1.6190   -0.4120 C   0  0  0  0  0  0  0  0  0  0  0  0
    1.8850   -2.7660   -0.5940 O   0  0  0  0  0  0  0  0  0  0  0  0
    2.3490   -0.4480   -0.1690 C   0  0  0  0  0  0  0  0  0  0  0  0
    3.7610   -0.5640   -0.0950 C   0  0  0  0  0  0  0  0  0  0  0  0
    4.5600    0.5700    0.1330 C   0  0  0  0  0  0  0  0  0  0  0  0
    3.9720    1.8330    0.2900 C   0  0  0  0  0  0  0  0  0  0  0  0
    2.5800    1.9620    0.2180 C   0  0  0  0  0  0  0  0  0  0  0  0
    1.7770    0.8330   -0.0080 C   0  0  0  0  0  0  0  0  0  0  0  0
    0.4190    1.0190   -0.0670 O   0  0  0  0  0  0  0  0  0  0  0  0
    4.7480    2.9330    0.5100 O   0  0  0  0  0  0  0  0  0  0  0  0
    4.4040   -1.7620   -0.2380 O   0  0  0  0  0  0  0  0  0  0  0  0
   -0.7400   -2.4060   -0.6670 O   0  0  0  0  0  0  0  0  0  0  0  0
   -4.8880   -0.9450    1.4200 O   0  0  0  0  0  0  0  0  0  0  0  0
   -5.9180    1.0090   -0.3630 O   0  0  0  0  0  0  0  0  0  0  0  0
   -1.6640    1.6790   -1.8110 H   0  0  0  0  0  0  0  0  0  0  0  0
   -4.0980    2.1540   -1.8570 H   0  0  0  0  0  0  0  0  0  0  0  0
   -2.3020   -1.2560    1.2910 H   0  0  0  0  0  0  0  0  0  0  0  0
    5.6400    0.4650    0.1880 H   0  0  0  0  0  0  0  0  0  0  0  0
    2.1190    2.9390    0.3400 H   0  0  0  0  0  0  0  0  0  0  0  0
    5.6840    2.6660    0.5320 H   0  0  0  0  0  0  0  0  0  0  0  0
    3.7380   -2.4600   -0.3970 H   0  0  0  0  0  0  0  0  0  0  0  0
   -0.1860   -3.2020   -0.7840 H   0  0  0  0  0  0  0  0  0  0  0  0
   -5.8130   -0.7220    1.2270 H   0  0  0  0  0  0  0  0  0  0  0  0
   -6.3770    0.5180    0.3370 H   0  0  0  0  0  0  0  0  0  0  0  0
  1 23  1  0  0  0  0
  1  2  1  0  0  0  0
  1  6  2  0  0  0  0
  2 24  1  0  0  0  0
  2  3  2  0  0  0  0
  3 22  1  0  0  0  0
  3  4  1  0  0  0  0
  4 21  1  0  0  0  0
  4  5  2  0  0  0  0
  5 25  1  0  0  0  0
  5  6  1  0  0  0  0
  6  7  1  0  0  0  0
  7 17  1  0  0  0  0
  7  8  2  0  0  0  0
  8 20  1  0  0  0  0
  8  9  1  0  0  0  0
  9 10  2  0  0  0  0
  9 11  1  0  0  0  0
 11 16  1  0  0  0  0
 11 12  2  0  0  0  0
 12 19  1  0  0  0  0
 12 13  1  0  0  0  0
 13 26  1  0  0  0  0
 13 14  2  0  0  0  0
 14 18  1  0  0  0  0
 14 15  1  0  0  0  0
 15 27  1  0  0  0  0
 15 16  2  0  0  0  0
 16 17  1  0  0  0  0
 18 28  1  0  0  0  0
 19 29  1  0  0  0  0
 20 30  1  0  0  0  0
 21 31  1  0  0  0  0
 22 32  1  0  0  0  0
M  END
> <UNIQUE_SMILES>
OC1=CC(=C2C(=O)C(=C(OC2=C1)C3=CC=C(O)C(=C3)O)O)O

$$$$
