@<TRIPOS>MOLECULE
Prup3-ligand_complex.pdb
104 107 1 0 0
SMALL
NO_CHARGES


@<TRIPOS>ATOM
      1 N51         5.4550   24.6020   14.2930 N.ar      1 LIG    0.0000
      2 C52         5.2220   23.6520   13.3410 C.ar      1 LIG    0.0000
      3 C53         5.8830   23.7320   12.0220 C.2       1 LIG    0.0000
      4 N54         5.5710   22.6140   11.3050 N.am      1 LIG    0.0000
      5 C56         4.5460   22.4430   13.4160 C.ar      1 LIG    0.0000
      6 C57         3.9600   22.0510   14.6230 C.ar      1 LIG    0.0000
      7 C58         4.3190   22.8770   15.6920 C.ar      1 LIG    0.0000
      8 C59         3.9640   22.4820   16.9810 C.ar      1 LIG    0.0000
      9 C60         4.3570   23.2380   18.0410 C.ar      1 LIG    0.0000
     10 C61         5.0040   24.4540   17.8470 C.ar      1 LIG    0.0000
     11 C62         5.2820   24.9410   16.6050 C.ar      1 LIG    0.0000
     12 C63         5.0290   24.1170   15.5300 C.ar      1 LIG    0.0000
     13 C64         6.9700   24.6160   11.6150 C.2       1 LIG    0.0000
     14 C65         7.7270   24.3360   10.4210 C.2       1 LIG    0.0000
     15 C66         7.3980   23.0270    9.6980 C.2       1 LIG    0.0000
     16 C67         6.2640   22.2070   10.1650 C.2       1 LIG    0.0000
     17 C1         10.5470   28.8740    7.3510 C.3       1 LIG    0.0000
     18 H11        10.3760   29.6040    6.5560 H         1 LIG    0.0000
     19 H12        10.1590   29.2480    8.3020 H         1 LIG    0.0000
     20 O1         11.9500   28.6570    7.4610 O.3       1 LIG    0.0000
     21 H13        12.3930   29.3910    7.9190 H         1 LIG    0.0000
     22 C2          9.8690   27.5350    7.0370 C.3       1 LIG    0.0000
     23 H21         8.8450   27.8330    6.7950 H         1 LIG    0.0000
     24 N2          9.8110   26.5660    8.1710 N.am      1 LIG    0.0000
     25 H22        10.6570   26.5410    8.7300 H         1 LIG    0.0000
     26 C3         10.4040   26.9800    5.7430 C.3       1 LIG    0.0000
     27 H31        11.4500   26.6770    5.8360 H         1 LIG    0.0000
     28 O3         10.3290   28.0230    4.6630 O.3       1 LIG    0.0000
     29 H32         9.3720   28.0370    4.4910 H         1 LIG    0.0000
     30 C4          9.5970   25.7210    5.2820 C.3       1 LIG    0.0000
     31 H41         9.5600   25.0200    6.1190 H         1 LIG    0.0000
     32 O4          8.3320   26.2310    4.9800 O.3       1 LIG    0.0000
     33 H42         7.7300   26.2500    5.7430 H         1 LIG    0.0000
     34 C5         10.2410   25.0910    4.0820 C.3       1 LIG    0.0000
     35 H51        11.1060   24.5850    4.5190 H         1 LIG    0.0000
     36 H52        10.5800   25.8270    3.3480 H         1 LIG    0.0000
     37 C6          9.3200   24.0680    3.4960 C.3       1 LIG    0.0000
     38 H61         8.3650   24.5520    3.2770 H         1 LIG    0.0000
     39 H62         9.1140   23.3230    4.2690 H         1 LIG    0.0000
     40 C7         10.0460   23.4000    2.2800 C.3       1 LIG    0.0000
     41 H71        10.4480   24.1720    1.6190 H         1 LIG    0.0000
     42 H72        10.8250   22.7620    2.7080 H         1 LIG    0.0000
     43 C8          9.1350   22.4960    1.4730 C.3       1 LIG    0.0000
     44 H81         9.6020   21.5100    1.4120 H         1 LIG    0.0000
     45 H82         8.1950   22.4350    2.0250 H         1 LIG    0.0000
     46 C9          8.7800   22.9440    0.0560 C.3       1 LIG    0.0000
     47 H91         9.6090   22.9050   -0.6550 H         1 LIG    0.0000
     48 H92         8.5880   24.0190    0.0850 H         1 LIG    0.0000
     49 C10         7.6470   22.1910   -0.6960 C.3       1 LIG    0.0000
     50 H101        8.1010   21.4260   -1.3310 H         1 LIG    0.0000
     51 H102        6.9780   21.7000    0.0150 H         1 LIG    0.0000
     52 C11         6.7160   23.2080   -1.3590 C.3       1 LIG    0.0000
     53 H111        7.3360   23.7870   -2.0470 H         1 LIG    0.0000
     54 H112        6.3530   23.9080   -0.6010 H         1 LIG    0.0000
     55 C12         5.5890   22.4890   -2.1850 C.3       1 LIG    0.0000
     56 H121        4.8130   22.2280   -1.4610 H         1 LIG    0.0000
     57 H122        5.8930   21.6620   -2.8310 H         1 LIG    0.0000
     58 C13         5.0260   23.6080   -3.0700 C.3       1 LIG    0.0000
     59 H131        5.7150   24.0160   -3.8140 H         1 LIG    0.0000
     60 H132        4.2290   23.0910   -3.6100 H         1 LIG    0.0000
     61 C14         4.2900   24.7120   -2.3610 C.3       1 LIG    0.0000
     62 H141        3.6000   24.1950   -1.6890 H         1 LIG    0.0000
     63 H142        4.9240   25.3600   -1.7510 H         1 LIG    0.0000
     64 C15         3.5510   25.5390   -3.3390 C.3       1 LIG    0.0000
     65 H151        2.6600   25.0570   -3.7500 H         1 LIG    0.0000
     66 H152        4.2100   25.8490   -4.1520 H         1 LIG    0.0000
     67 C16         3.1460   26.8330   -2.7250 C.3       1 LIG    0.0000
     68 H161        2.5710   27.4150   -3.4500 H         1 LIG    0.0000
     69 H162        2.5720   26.6030   -1.8240 H         1 LIG    0.0000
     70 C17         4.2510   27.6880   -2.3810 C.3       1 LIG    0.0000
     71 H171        4.7410   27.3570   -1.4610 H         1 LIG    0.0000
     72 H172        4.9830   27.6910   -3.1930 H         1 LIG    0.0000
     73 C18         3.8180   29.1330   -2.3280 C.3       1 LIG    0.0000
     74 H181        2.9990   29.1860   -1.6080 H         1 LIG    0.0000
     75 H182        4.6190   29.7900   -1.9800 H         1 LIG    0.0000
     76 H183        3.4320   29.4000   -3.3160 H         1 LIG    0.0000
     77 C55         4.6300   21.7710   12.0700 C.3       1 LIG    0.0000
     78 H551        3.6280   21.8000   11.6340 H         1 LIG    0.0000
     79 H552        4.9780   20.7340   12.0890 H         1 LIG    0.0000
     80 H57         3.3770   21.1470   14.7610 H         1 LIG    0.0000
     81 H59         3.4430   21.5340   17.0480 H         1 LIG    0.0000
     82 H1          5.2440   25.0470   18.7230 H         1 LIG    0.0000
     83 H2          5.7760   25.9060   16.5810 H         1 LIG    0.0000
     84 H64         7.1510   25.4710   12.2540 H         1 LIG    0.0000
     85 C68        10.4660   23.8450   11.4050 C.3       1 LIG    0.0000
     86 H681       10.4330   24.6270   12.1680 H         1 LIG    0.0000
     87 H682       11.4520   23.3820   11.3200 H         1 LIG    0.0000
     88 H683        9.7750   23.0940   11.7990 H         1 LIG    0.0000
     89 C69        10.1820   24.5240   10.0680 C.3       1 LIG    0.0000
     90 H691       11.0160   25.1540    9.7490 H         1 LIG    0.0000
     91 H692       10.1650   23.7270    9.3200 H         1 LIG    0.0000
     92 C70         8.9030   25.2800   10.0700 C.3       1 LIG    0.0000
     93 C71         8.7350   25.9900    8.6770 C.2       1 LIG    0.0000
     94 C72         7.9340   22.6410    8.4060 C.3       1 LIG    0.0000
     95 H721        7.1490   22.3350    7.7080 H         1 LIG    0.0000
     96 H722        8.4000   23.3960    7.7680 H         1 LIG    0.0000
     97 O73         6.1420   21.1650    9.6310 O.2       1 LIG    0.0000
     98 O74         8.9770   26.3900   10.9550 O.3       1 LIG    0.0000
     99 H74         8.0700   26.7030   10.8000 H         1 LIG    0.0000
    100 O75         7.7210   26.0610    8.0180 O.2       1 LIG    0.0000
    101 O76         8.8320   21.5920    8.5730 O.3       1 LIG    0.0000
    102 H76         8.3340   20.8190    8.8860 H         1 LIG    0.0000
    103 O77         4.0910   22.7680   19.3520 O.3       1 LIG    0.0000
    104 H77         3.4280   22.0580   19.3020 H         1 LIG    0.0000
@<TRIPOS>BOND
     1   17   18 1
     2   17   19 1
     3   17   20 1
     4   17   22 1
     5   49   46 1
     6   49   50 1
     7   49   51 1
     8   49   52 1
     9   52   53 1
    10   52   54 1
    11   52   55 1
    12   55   56 1
    13   55   57 1
    14   55   58 1
    15   58   59 1
    16   58   60 1
    17   58   61 1
    18   61   62 1
    19   61   63 1
    20   61   64 1
    21   64   65 1
    22   64   66 1
    23   64   67 1
    24   67   68 1
    25   67   69 1
    26   67   70 1
    27   70   71 1
    28   70   72 1
    29   70   73 1
    30   73   74 1
    31   73   75 1
    32   73   76 1
    33   22   23 1
    34   22   24 1
    35   22   26 1
    36   26   27 1
    37   26   28 1
    38   26   30 1
    39   30   31 1
    40   30   32 1
    41   30   34 1
    42   34   35 1
    43   34   36 1
    44   34   37 1
    45    2    1 ar
    46    2    3 1
    47    2    5 ar
    48    3    4 1
    49    3   13 2
    50   77    4 1
    51   77    5 1
    52   77   78 1
    53   77   79 1
    54    5    6 ar
    55    6    7 ar
    56    6   80 1
    57    7    8 ar
    58    7   12 ar
    59    8    9 ar
    60    8   81 1
    61   37   38 1
    62   37   39 1
    63   37   40 1
    64    9   10 ar
    65    9  103 1
    66   10   11 ar
    67   10   82 1
    68   11   12 ar
    69   11   83 1
    70   12    1 ar
    71   13   14 2
    72   13   84 1
    73   14   15 2
    74   14   92 1
    75   15   16 1
    76   15   94 1
    77   16    4 am
    78   16   97 2
    79   85   86 1
    80   85   87 1
    81   85   88 1
    82   85   89 1
    83   89   90 1
    84   89   91 1
    85   89   92 1
    86   40   41 1
    87   40   42 1
    88   40   43 1
    89   92   93 1
    90   92   98 1
    91   93   24 am
    92   93  100 2
    93   94   95 1
    94   94   96 1
    95   94  101 1
    96   43   44 1
    97   43   45 1
    98   43   46 1
    99   46   47 1
   100   46   48 1
   101   21   20 1
   102   25   24 1
   103   29   28 1
   104   33   32 1
   105   99   98 1
   106  102  101 1
   107  104  103 1
@<TRIPOS>SUBSTRUCTURE
     1 LIG     1 RESIDUE           4 B     LIG     0 ROOT
