@<TRIPOS>MOLECULE
Molecule Pharmacophore_PR10_3.mol2
     4     0
SMALL
NO_CHARGES
@<TRIPOS>ATOM
      1 DON        -0.8470   -3.2890    0.7340 HB    0     HB      0.0000
      4 ACC         9.0100   -0.1840   -1.1570 HB    3     HB      0.0000
      5 ACC         9.6970    1.6170   -0.0240 HB    4     HB      0.0000
      6 ACC        -0.8470   -3.2890    0.7340 HB    5     HB      0.0000
@<TRIPOS>BOND
@<TRIPOS>MOLECULE
Pharmacophore_PR10_3.mol2
    52    52
SMALL
NO_CHARGES
@<TRIPOS>ATOM
      1 C1         -3.8130    3.3670    0.9980 C.3   1     UNK1   -0.0649
      2 C2         -3.6100    1.8510    0.7860 C.3   1     UNK1   -0.0498
      3 C3         -4.9230    1.0760    0.4760 C.3   1     UNK1   -0.0019
      4 C4         -5.5850    1.4310   -0.8780 C.3   1     UNK1    0.0656
      5 C5         -6.4930    0.2300   -1.2090 C.3   1     UNK1    0.0327
      6 C6         -5.8700   -0.9520   -0.4790 C.2   1     UNK1    0.1429
      7 O1         -6.0110   -2.1100   -0.8310 O.2   1     UNK1   -0.2967
      8 C7         -4.7630   -0.4690    0.4550 C.3   1     UNK1    0.0409
      9 C8         -3.4080   -0.9360   -0.0470 C.2   1     UNK1   -0.0750
     10 C9         -2.4960   -1.5520    0.7120 C.2   1     UNK1   -0.0592
     11 C10        -1.1380   -1.9950    0.2120 C.3   1     UNK1    0.0734
     12 C11        -0.0440   -0.9850    0.6290 C.3   1     UNK1   -0.0232
     13 C12         1.3440   -1.3220    0.0350 C.3   1     UNK1   -0.0504
     14 C13         2.4180   -0.2910    0.4510 C.3   1     UNK1   -0.0530
     15 C14         3.8060   -0.6300   -0.1370 C.3   1     UNK1   -0.0530
     16 C15         4.8850    0.3880    0.2940 C.3   1     UNK1   -0.0526
     17 C16         6.2730    0.0470   -0.2930 C.3   1     UNK1   -0.0434
     18 C17         7.3560    1.0590    0.1470 C.3   1     UNK1    0.0337
     19 C18         8.7460    0.7470   -0.4190 C.2   1     UNK1    0.1760
     20 O2          9.0100   -0.1840   -1.1570 O.co2 1     UNK1   -0.6478
     21 O3          9.6970    1.6170   -0.0240 O.co2 1     UNK1   -0.6478
     22 O4         -0.8470   -3.2890    0.7340 O.3   1     UNK1   -0.3878
     23 O5         -6.3470    2.6350   -0.8020 O.3   1     UNK1   -0.3911
     24 H11        -2.8720    3.9224    1.2202 H     1     UNK1    0.0230
     25 H12        -4.5747    3.5534    1.7907 H     1     UNK1    0.0230
     26 H13        -4.2214    3.7801    0.0463 H     1     UNK1    0.0230
     27 H21        -3.0856    1.3997    1.6604 H     1     UNK1    0.0266
     28 H22        -2.9404    1.7295   -0.0973 H     1     UNK1    0.0266
     29 H3         -5.6545    1.3245    1.2800 H     1     UNK1    0.0335
     30 H4         -4.7998    1.5340   -1.6629 H     1     UNK1    0.0600
     31 H51        -6.6358    0.0605   -2.3017 H     1     UNK1    0.0367
     32 H52        -7.4944    0.4225   -0.7580 H     1     UNK1    0.0367
     33 H7         -4.9388   -0.8739    1.4789 H     1     UNK1    0.0423
     34 H8         -3.1602   -0.7553   -1.1065 H     1     UNK1    0.0577
     35 H9         -2.7488   -1.7495    1.7673 H     1     UNK1    0.0595
     36 H10        -1.1667   -2.0546   -0.9010 H     1     UNK1    0.0637
     37 H111        0.0094   -0.8906    1.7387 H     1     UNK1    0.0293
     38 H112       -0.3428    0.0110    0.2265 H     1     UNK1    0.0293
     39 H121        1.2943   -1.4294   -1.0737 H     1     UNK1    0.0266
     40 H122        1.6526   -2.3094    0.4510 H     1     UNK1    0.0266
     41 H131        2.4645   -0.1806    1.5595 H     1     UNK1    0.0265
     42 H132        2.1115    0.6956    0.0315 H     1     UNK1    0.0265
     43 H141        3.7618   -0.7259   -1.2470 H     1     UNK1    0.0265
     44 H142        4.1055   -1.6237    0.2704 H     1     UNK1    0.0265
     45 H151        4.9285    0.4851    1.4039 H     1     UNK1    0.0265
     46 H152        4.5865    1.3815   -0.1148 H     1     UNK1    0.0265
     47 H161        6.2309   -0.0420   -1.4036 H     1     UNK1    0.0270
     48 H162        6.5676   -0.9504    0.1091 H     1     UNK1    0.0270
     49 H171        7.3911    1.1425    1.2583 H     1     UNK1    0.0374
     50 H172        7.0551    2.0569   -0.2492 H     1     UNK1    0.0374
     51 H4          0.0054   -3.5671    0.4201 H     1     UNK1    0.2102
     52 H5         -6.7532    2.8528   -1.6327 H     1     UNK1    0.2098
@<TRIPOS>BOND
     1     1     2    1 
     2     1    24    1 
     3     1    25    1 
     4     1    26    1 
     5     2     3    1 
     6     2    27    1 
     7     2    28    1 
     8     3     4    1 
     9     3     8    1 
    10     3    29    1 
    11     4     5    1 
    12     4    23    1 
    13     4    30    1 
    14     5     6    1 
    15     5    31    1 
    16     5    32    1 
    17     6     7    2 
    18     6     8    1 
    19     8     9    1 
    20     8    33    1 
    21     9    10    2 
    22     9    34    1 
    23    10    11    1 
    24    10    35    1 
    25    11    12    1 
    26    11    22    1 
    27    11    36    1 
    28    12    13    1 
    29    12    37    1 
    30    12    38    1 
    31    13    14    1 
    32    13    39    1 
    33    13    40    1 
    34    14    15    1 
    35    14    41    1 
    36    14    42    1 
    37    15    16    1 
    38    15    43    1 
    39    15    44    1 
    40    16    17    1 
    41    16    45    1 
    42    16    46    1 
    43    17    18    1 
    44    17    47    1 
    45    17    48    1 
    46    18    19    1 
    47    18    49    1 
    48    18    50    1 
    49    19    20    2 
    50    19    21    1 
    51    22    51    1 
    52    23    52    1 
@<TRIPOS>MOLECULE
Molecule Pharmacophore_PR10_3.mol2
    19     0
SMALL
NO_CHARGES
@<TRIPOS>ATOM
      1 DON        -0.8470   -3.2890    0.7340 HB    0     HB      0.0000
      2 DON        -6.3470    2.6350   -0.8020 HB    1     HB      0.0000
      3 ACC        -6.0110   -2.1100   -0.8310 HB    2     HB      0.0000
      4 ACC         9.0100   -0.1840   -1.1570 HB    3     HB      0.0000
      5 ACC         9.6970    1.6170   -0.0240 HB    4     HB      0.0000
      6 ACC        -0.8470   -3.2890    0.7340 HB    5     HB      0.0000
      7 ACC        -6.3470    2.6350   -0.8020 HB    6     HB      0.0000
      8 ANI         8.7460    0.7470   -0.4190 CHG   7     CHG     0.1760
      9 HYD         5.5790    0.2175    0.0005 HYD   8     HYD     0.0000
     10 HYD         4.3455   -0.1210    0.0785 HYD   9     HYD     0.0000
     11 HYD         3.1120   -0.4605    0.1570 HYD   10    HYD     0.0000
     12 HYD         1.8810   -0.8065    0.2430 HYD   11    HYD     0.0000
     13 HYD         0.6500   -1.1535    0.3320 HYD   12    HYD     0.0000
     14 HYD        -4.0855   -0.7025    0.2040 HYD   13    HYD     0.0000
     15 HYD        -4.2665    1.4635    0.6310 HYD   14    HYD     0.0000
     16 HYD        -3.7115    2.6090    0.8920 HYD   15    HYD     0.0000
     17 HYD        -4.8430    0.3035    0.4655 HYD   16    HYD     0.0000
     18 HYD        -2.9520   -1.2440    0.3325 HYD   17    HYD     0.0000
     19 HYD        -3.8130    3.3670    0.9980 HYD   18    HYD     0.0000
@<TRIPOS>BOND
@<TRIPOS>MOLECULE
Pharmacophore_PR10_1.mol2
    74    78
SMALL
NO_CHARGES
@<TRIPOS>ATOM
      1 C1          3.0325    3.7515    0.0791 C.ar  1     UNK1   -0.0494
      2 C2          3.9268    4.8222   -0.0799 C.ar  1     UNK1   -0.0288
      3 C3          5.2257    4.7413    0.4471 C.ar  1     UNK1    0.1022
      4 C4          5.6223    3.5872    1.1523 C.ar  1     UNK1    0.1028
      5 C5          4.7222    2.5226    1.3210 C.ar  1     UNK1   -0.0197
      6 C6          3.4279    2.5878    0.7660 C.ar  1     UNK1    0.0107
      7 C7          2.4921    1.4664    0.8797 C.2   1     UNK1    0.1240
      8 C8          2.8595    0.2227    0.3899 C.2   1     UNK1    0.1576
      9 C9          1.9680   -0.8461    0.4241 C.2   1     UNK1    0.2234
     10 O1          2.2989   -1.9621    0.0292 O.2   1     UNK1   -0.2843
     11 C10         0.6244   -0.5385    0.9585 C.ar  1     UNK1    0.0846
     12 C11        -0.4034   -1.5178    1.0169 C.ar  1     UNK1    0.0884
     13 C12        -1.6772   -1.1893    1.5112 C.ar  1     UNK1   -0.0013
     14 C13        -1.9551    0.1108    1.9516 C.ar  1     UNK1    0.0775
     15 C14        -0.9536    1.0886    1.8974 C.ar  1     UNK1   -0.0005
     16 C15         0.3213    0.7672    1.4058 C.ar  1     UNK1    0.0990
     17 O2          1.2517    1.7749    1.3633 O.3   1     UNK1   -0.3051
     18 O3         -3.1937    0.4308    2.4260 O.3   1     UNK1   -0.3597
     19 O4         -0.2148   -2.8047    0.5971 O.3   1     UNK1   -0.3590
     20 O5          4.3104   -0.0798    0.1160 O.3   1     UNK1   -0.3061
     21 C16         5.2797    0.9932    0.2710 C.3   1     UNK1    0.1943
     22 C17         6.7362    0.5624   -0.0461 C.3   1     UNK1    0.1410
     23 C18         6.9435    0.3544   -1.5739 C.3   1     UNK1    0.1144
     24 C19         6.4141    1.5397   -2.4150 C.3   1     UNK1    0.1119
     25 C20         4.9376    1.8247   -2.0307 C.3   1     UNK1    0.1130
     26 O6          4.8829    2.0711   -0.6059 O.3   1     UNK1   -0.3402
     27 C21         4.3600    3.0561   -2.7642 C.3   1     UNK1    0.0730
     28 O7          2.9327    3.0481   -2.7143 O.3   1     UNK1   -0.3924
     29 O8          7.2197    2.7087   -2.2338 O.3   1     UNK1   -0.3865
     30 O9          8.2923    0.0125   -1.9101 O.3   1     UNK1   -0.3864
     31 O10         7.8784    1.4578    0.2752 O.3   1     UNK1   -0.3377
     32 C22         9.2476    1.1843    0.2133 C.3   1     UNK1    0.1885
     33 C23         9.4950    0.3559   -1.0733 C.3   1     UNK1    0.1341
     34 C24         9.4057    1.2664   -2.3301 C.3   1     UNK1    0.1141
     35 C25        10.2677    2.5499   -2.2095 C.3   1     UNK1    0.1119
     36 C26         9.9492    3.2840   -0.8793 C.3   1     UNK1    0.1130
     37 O11        10.1024    2.3513    0.2198 O.3   1     UNK1   -0.3405
     38 C27        10.8799    4.4872   -0.6131 C.3   1     UNK1    0.0730
     39 O12        10.3448    5.3181    0.4197 O.3   1     UNK1   -0.3924
     40 O13        11.6649    2.2545   -2.3045 O.3   1     UNK1   -0.3865
     41 O14         9.7013    0.5563   -3.5384 O.3   1     UNK1   -0.3864
     42 O15        10.7507   -0.3290   -0.9891 O.3   1     UNK1   -0.3841
     43 O16         6.8860    3.4843    1.6562 O.3   1     UNK1   -0.3573
     44 O17         6.0979    5.7775    0.2613 O.3   1     UNK1   -0.3573
     45 H1          2.0135    3.8225   -0.3369 H     1     UNK1    0.0625
     46 H2          3.6080    5.7294   -0.6203 H     1     UNK1    0.0644
     47 H5          5.0298    1.6300    1.8911 H     1     UNK1    0.0651
     48 H12        -2.4640   -1.9611    1.5527 H     1     UNK1    0.0669
     49 H14        -1.1675    2.1142    2.2422 H     1     UNK1    0.0669
     50 H3         -3.3822    1.3126    2.7246 H     1     UNK1    0.2173
     51 H4         -0.9020   -3.4595    0.6361 H     1     UNK1    0.2173
     52 H16         5.2161    1.3345    1.3305 H     1     UNK1    0.0942
     53 H17         7.1721   -0.5181    0.2211 H     1     UNK1    0.0675
     54 H18         6.3211   -0.5272   -1.8541 H     1     UNK1    0.0648
     55 H19         6.4488    1.2511   -3.4915 H     1     UNK1    0.0647
     56 H20         4.3171    0.9303   -2.2719 H     1     UNK1    0.0647
     57 H211        4.7369    3.1284   -3.8111 H     1     UNK1    0.0584
     58 H212        4.7089    3.9642   -2.2194 H     1     UNK1    0.0584
     59 H7          2.5776    3.8051   -3.1651 H     1     UNK1    0.2095
     60 H8          6.8945    3.4366   -2.7504 H     1     UNK1    0.2100
     61 H9          8.4189   -0.1145   -2.8430 H     1     UNK1    0.2100
     62 H22         9.4598    0.5576    1.1108 H     1     UNK1    0.0938
     63 H23         8.6896   -0.4116   -1.1475 H     1     UNK1    0.0671
     64 H24         8.3448    1.6005   -2.4076 H     1     UNK1    0.0648
     65 H25         9.9988    3.2283   -3.0526 H     1     UNK1    0.0647
     66 H26         8.8934    3.6416   -0.9066 H     1     UNK1    0.0647
     67 H271       11.0860    5.0651   -1.5441 H     1     UNK1    0.0584
     68 H272       11.8528    4.0834   -0.2475 H     1     UNK1    0.0584
     69 H12        10.9173    6.0582    0.5835 H     1     UNK1    0.2095
     70 H13        12.1929    3.0408   -2.2306 H     1     UNK1    0.2100
     71 H14         9.6467    1.1127   -4.3065 H     1     UNK1    0.2100
     72 H15        10.9023   -0.8367   -1.7776 H     1     UNK1    0.2101
     73 H16         7.1533    2.7064    2.1315 H     1     UNK1    0.2174
     74 H17         6.9768    5.7228    0.6179 H     1     UNK1    0.2174
@<TRIPOS>BOND
     1     1     2    ar
     2     1     6    ar
     3     1    45    1 
     4     2     3    ar
     5     2    46    1 
     6     3     4    ar
     7     3    44    1 
     8     4     5    ar
     9     4    43    1 
    10     5     6    ar
    11     5    47    1 
    12     6     7    1 
    13     7     8    2 
    14     7    17    1 
    15     8     9    2 
    16     8    20    1 
    17     9    10    2 
    18     9    11    1 
    19    11    12    ar
    20    11    16    ar
    21    12    13    ar
    22    12    19    1 
    23    13    14    ar
    24    13    48    1 
    25    14    15    ar
    26    14    18    1 
    27    15    16    ar
    28    15    49    1 
    29    16    17    1 
    30    18    50    1 
    31    19    51    1 
    32    20    21    1 
    33    21    22    1 
    34    21    26    1 
    35    21    52    1 
    36    22    23    1 
    37    22    31    1 
    38    22    53    1 
    39    23    24    1 
    40    23    30    1 
    41    23    54    1 
    42    24    25    1 
    43    24    29    1 
    44    24    55    1 
    45    25    26    1 
    46    25    27    1 
    47    25    56    1 
    48    27    28    1 
    49    27    57    1 
    50    27    58    1 
    51    28    59    1 
    52    29    60    1 
    53    30    61    1 
    54    31    32    1 
    55    32    33    1 
    56    32    37    1 
    57    32    62    1 
    58    33    34    1 
    59    33    42    1 
    60    33    63    1 
    61    34    35    1 
    62    34    41    1 
    63    34    64    1 
    64    35    36    1 
    65    35    40    1 
    66    35    65    1 
    67    36    37    1 
    68    36    38    1 
    69    36    66    1 
    70    38    39    1 
    71    38    67    1 
    72    38    68    1 
    73    39    69    1 
    74    40    70    1 
    75    41    71    1 
    76    42    72    1 
    77    43    73    1 
    78    44    74    1 
@<TRIPOS>MOLECULE
Molecule Pharmacophore_PR10_1.mol2
    31     0
SMALL
NO_CHARGES
@<TRIPOS>ATOM
      1 DON        -3.1937    0.4308    2.4260 HB    0     HB      0.0000
      2 DON        -0.2148   -2.8047    0.5971 HB    1     HB      0.0000
      3 DON         2.9327    3.0481   -2.7143 HB    2     HB      0.0000
      4 DON         7.2197    2.7087   -2.2338 HB    3     HB      0.0000
      5 DON         8.2923    0.0125   -1.9101 HB    4     HB      0.0000
      6 DON        10.3448    5.3181    0.4197 HB    5     HB      0.0000
      7 DON        11.6649    2.2545   -2.3045 HB    6     HB      0.0000
      8 DON         9.7013    0.5563   -3.5384 HB    7     HB      0.0000
      9 DON        10.7507   -0.3290   -0.9891 HB    8     HB      0.0000
     10 DON         6.8860    3.4843    1.6562 HB    9     HB      0.0000
     11 DON         6.0979    5.7775    0.2613 HB    10    HB      0.0000
     12 ACC         2.2989   -1.9621    0.0292 HB    11    HB      0.0000
     13 ACC         1.2517    1.7749    1.3633 HB    12    HB      0.0000
     14 ACC        -3.1937    0.4308    2.4260 HB    13    HB      0.0000
     15 ACC        -0.2148   -2.8047    0.5971 HB    14    HB      0.0000
     16 ACC         4.3885   -0.1244    0.0721 HB    15    HB      0.0000
     17 ACC         4.8829    2.0711   -0.6059 HB    16    HB      0.0000
     18 ACC         2.9327    3.0481   -2.7143 HB    17    HB      0.0000
     19 ACC         7.2197    2.7087   -2.2338 HB    18    HB      0.0000
     20 ACC         8.2923    0.0125   -1.9101 HB    19    HB      0.0000
     21 ACC         7.8617    1.5895    0.2189 HB    20    HB      0.0000
     22 ACC        10.1024    2.3513    0.2198 HB    21    HB      0.0000
     23 ACC        10.3448    5.3181    0.4197 HB    22    HB      0.0000
     24 ACC        11.6649    2.2545   -2.3045 HB    23    HB      0.0000
     25 ACC         9.7013    0.5563   -3.5384 HB    24    HB      0.0000
     26 ACC        10.7507   -0.3290   -0.9891 HB    25    HB      0.0000
     27 ACC         6.8860    3.4843    1.6562 HB    26    HB      0.0000
     28 ACC         6.0979    5.7775    0.2613 HB    27    HB      0.0000
     29 AR          4.3262    3.6688    0.6143 AR    28    AR      0.0000
     30 AR          1.5862    0.4744    0.9035 AR    29    AR      0.0000
     31 AR         -0.6739   -0.2132    1.4569 AR    30    AR      0.0000
@<TRIPOS>BOND
@<TRIPOS>MOLECULE
Pharmacophore_PR10_2.mol2
    74    78
SMALL
NO_CHARGES
@<TRIPOS>ATOM
      1 C1          3.0327    3.7517    0.0807 C.ar  1     UNK1   -0.0494
      2 C2          3.9264    4.8232   -0.0792 C.ar  1     UNK1   -0.0288
      3 C3          5.2256    4.7416    0.4471 C.ar  1     UNK1    0.1022
      4 C4          5.6226    3.5879    1.1527 C.ar  1     UNK1    0.1028
      5 C5          4.7223    2.5235    1.3211 C.ar  1     UNK1   -0.0197
      6 C6          3.4283    2.5885    0.7658 C.ar  1     UNK1    0.0107
      7 C7          2.4919    1.4671    0.8801 C.2   1     UNK1    0.1240
      8 C8          2.8599    0.2229    0.3896 C.2   1     UNK1    0.1576
      9 C9          1.9690   -0.8456    0.4239 C.2   1     UNK1    0.2234
     10 O1          2.2985   -1.9616    0.0277 O.2   1     UNK1   -0.2843
     11 C10         0.6239   -0.5383    0.9585 C.ar  1     UNK1    0.0846
     12 C11        -0.4032   -1.5172    1.0170 C.ar  1     UNK1    0.0884
     13 C12        -1.6763   -1.1886    1.5113 C.ar  1     UNK1   -0.0013
     14 C13        -1.9546    0.1111    1.9523 C.ar  1     UNK1    0.0775
     15 C14        -0.9529    1.0887    1.8983 C.ar  1     UNK1   -0.0005
     16 C15         0.3213    0.7671    1.4067 C.ar  1     UNK1    0.0990
     17 O2          1.2523    1.7748    1.3635 O.3   1     UNK1   -0.3051
     18 O3         -3.1927    0.4301    2.4274 O.3   1     UNK1   -0.3597
     19 O4         -0.2140   -2.8048    0.5966 O.3   1     UNK1   -0.3590
     20 O5          4.3102   -0.0794    0.1163 O.3   1     UNK1   -0.3061
     21 C16         5.2806    0.9930    0.2702 C.3   1     UNK1    0.1943
     22 C17         6.7366    0.5620   -0.0465 C.3   1     UNK1    0.1410
     23 C18         6.9432    0.3549   -1.5745 C.3   1     UNK1    0.1144
     24 C19         6.4129    1.5406   -2.4153 C.3   1     UNK1    0.1119
     25 C20         4.9376    1.8253   -2.0296 C.3   1     UNK1    0.1130
     26 O6          4.8836    2.0725   -0.6053 O.3   1     UNK1   -0.3402
     27 C21         4.3600    3.0578   -2.7629 C.3   1     UNK1    0.0730
     28 O7          2.9327    3.0506   -2.7124 O.3   1     UNK1   -0.3924
     29 O8          7.2200    2.7096   -2.2339 O.3   1     UNK1   -0.3865
     30 O9          8.2915    0.0124   -1.9116 O.3   1     UNK1   -0.3864
     31 O10         7.8780    1.4574    0.2750 O.3   1     UNK1   -0.3377
     32 C22         9.2468    1.1844    0.2139 C.3   1     UNK1    0.1885
     33 C23         9.4949    0.3558   -1.0732 C.3   1     UNK1    0.1341
     34 C24         9.4070    1.2660   -2.3294 C.3   1     UNK1    0.1141
     35 C25        10.2696    2.5499   -2.2089 C.3   1     UNK1    0.1119
     36 C26         9.9498    3.2842   -0.8792 C.3   1     UNK1    0.1130
     37 O11        10.1023    2.3518    0.2203 O.3   1     UNK1   -0.3405
     38 C27        10.8802    4.4876   -0.6124 C.3   1     UNK1    0.0730
     39 O12        10.3449    5.3176    0.4205 O.3   1     UNK1   -0.3924
     40 O13        11.6664    2.2547   -2.3035 O.3   1     UNK1   -0.3865
     41 O14         9.7029    0.5566   -3.5381 O.3   1     UNK1   -0.3864
     42 O15        10.7506   -0.3290   -0.9879 O.3   1     UNK1   -0.3841
     43 O16         6.8865    3.4843    1.6559 O.3   1     UNK1   -0.3573
     44 O17         6.0985    5.7777    0.2628 O.3   1     UNK1   -0.3573
     45 H1          2.0131    3.8226   -0.3340 H     1     UNK1    0.0625
     46 H2          3.6071    5.7304   -0.6192 H     1     UNK1    0.0644
     47 H5          5.0297    1.6308    1.8915 H     1     UNK1    0.0651
     48 H12        -2.4632   -1.9604    1.5525 H     1     UNK1    0.0669
     49 H14        -1.1664    2.1143    2.2432 H     1     UNK1    0.0669
     50 H3         -3.3814    1.3118    2.7266 H     1     UNK1    0.2173
     51 H4         -0.9011   -3.4596    0.6357 H     1     UNK1    0.2173
     52 H16         5.2177    1.3339    1.3300 H     1     UNK1    0.0942
     53 H17         7.1719   -0.5183    0.2208 H     1     UNK1    0.0675
     54 H18         6.3204   -0.5266   -1.8546 H     1     UNK1    0.0648
     55 H19         6.4466    1.2525   -3.4919 H     1     UNK1    0.0647
     56 H20         4.3166    0.9311   -2.2704 H     1     UNK1    0.0647
     57 H211        4.7365    3.1300   -3.8099 H     1     UNK1    0.0584
     58 H212        4.7096    3.9657   -2.2181 H     1     UNK1    0.0584
     59 H7          2.5778    3.8080   -3.1629 H     1     UNK1    0.2095
     60 H8          6.8944    3.4376   -2.7501 H     1     UNK1    0.2100
     61 H9          8.4176   -0.1142   -2.8446 H     1     UNK1    0.2100
     62 H22         9.4588    0.5578    1.1114 H     1     UNK1    0.0938
     63 H23         8.6895   -0.4117   -1.1481 H     1     UNK1    0.0671
     64 H24         8.3462    1.6005   -2.4074 H     1     UNK1    0.0648
     65 H25        10.0010    3.2280   -3.0523 H     1     UNK1    0.0647
     66 H26         8.8941    3.6417   -0.9074 H     1     UNK1    0.0647
     67 H271       11.0862    5.0660   -1.5431 H     1     UNK1    0.0584
     68 H272       11.8532    4.0840   -0.2469 H     1     UNK1    0.0584
     69 H12        10.9172    6.0579    0.5846 H     1     UNK1    0.2095
     70 H13        12.1945    3.0409   -2.2296 H     1     UNK1    0.2100
     71 H14         9.6493    1.1131   -4.3061 H     1     UNK1    0.2100
     72 H15        10.9026   -0.8366   -1.7763 H     1     UNK1    0.2101
     73 H16         7.1541    2.7067    2.1315 H     1     UNK1    0.2174
     74 H17         6.9775    5.7225    0.6189 H     1     UNK1    0.2174
@<TRIPOS>BOND
     1     1     2    ar
     2     1     6    ar
     3     1    45    1 
     4     2     3    ar
     5     2    46    1 
     6     3     4    ar
     7     3    44    1 
     8     4     5    ar
     9     4    43    1 
    10     5     6    ar
    11     5    47    1 
    12     6     7    1 
    13     7     8    2 
    14     7    17    1 
    15     8     9    2 
    16     8    20    1 
    17     9    10    2 
    18     9    11    1 
    19    11    12    ar
    20    11    16    ar
    21    12    13    ar
    22    12    19    1 
    23    13    14    ar
    24    13    48    1 
    25    14    15    ar
    26    14    18    1 
    27    15    16    ar
    28    15    49    1 
    29    16    17    1 
    30    18    50    1 
    31    19    51    1 
    32    20    21    1 
    33    21    22    1 
    34    21    26    1 
    35    21    52    1 
    36    22    23    1 
    37    22    31    1 
    38    22    53    1 
    39    23    24    1 
    40    23    30    1 
    41    23    54    1 
    42    24    25    1 
    43    24    29    1 
    44    24    55    1 
    45    25    26    1 
    46    25    27    1 
    47    25    56    1 
    48    27    28    1 
    49    27    57    1 
    50    27    58    1 
    51    28    59    1 
    52    29    60    1 
    53    30    61    1 
    54    31    32    1 
    55    32    33    1 
    56    32    37    1 
    57    32    62    1 
    58    33    34    1 
    59    33    42    1 
    60    33    63    1 
    61    34    35    1 
    62    34    41    1 
    63    34    64    1 
    64    35    36    1 
    65    35    40    1 
    66    35    65    1 
    67    36    37    1 
    68    36    38    1 
    69    36    66    1 
    70    38    39    1 
    71    38    67    1 
    72    38    68    1 
    73    39    69    1 
    74    40    70    1 
    75    41    71    1 
    76    42    72    1 
    77    43    73    1 
    78    44    74    1 
@<TRIPOS>MOLECULE
Molecule Pharmacophore_PR10_2.mol2
    31     0
SMALL
NO_CHARGES
@<TRIPOS>ATOM
      1 DON        -3.1927    0.4301    2.4274 HB    0     HB      0.0000
      2 DON        -0.2140   -2.8048    0.5966 HB    1     HB      0.0000
      3 DON         2.9327    3.0506   -2.7124 HB    2     HB      0.0000
      4 DON         7.2200    2.7096   -2.2339 HB    3     HB      0.0000
      5 DON         8.2915    0.0124   -1.9116 HB    4     HB      0.0000
      6 DON        10.3449    5.3176    0.4205 HB    5     HB      0.0000
      7 DON        11.6664    2.2547   -2.3035 HB    6     HB      0.0000
      8 DON         9.7029    0.5566   -3.5381 HB    7     HB      0.0000
      9 DON        10.7506   -0.3290   -0.9879 HB    8     HB      0.0000
     10 DON         6.8865    3.4843    1.6559 HB    9     HB      0.0000
     11 DON         6.0985    5.7777    0.2628 HB    10    HB      0.0000
     12 ACC         2.2985   -1.9616    0.0277 HB    11    HB      0.0000
     13 ACC         1.2523    1.7748    1.3635 HB    12    HB      0.0000
     14 ACC        -3.1927    0.4301    2.4274 HB    13    HB      0.0000
     15 ACC        -0.2140   -2.8048    0.5966 HB    14    HB      0.0000
     16 ACC         4.3878   -0.1239    0.0726 HB    15    HB      0.0000
     17 ACC         4.8836    2.0725   -0.6053 HB    16    HB      0.0000
     18 ACC         2.9327    3.0506   -2.7124 HB    17    HB      0.0000
     19 ACC         7.2200    2.7096   -2.2339 HB    18    HB      0.0000
     20 ACC         8.2915    0.0124   -1.9116 HB    19    HB      0.0000
     21 ACC         7.8614    1.5895    0.2190 HB    20    HB      0.0000
     22 ACC        10.1023    2.3518    0.2203 HB    21    HB      0.0000
     23 ACC        10.3449    5.3176    0.4205 HB    22    HB      0.0000
     24 ACC        11.6664    2.2547   -2.3035 HB    23    HB      0.0000
     25 ACC         9.7029    0.5566   -3.5381 HB    24    HB      0.0000
     26 ACC        10.7506   -0.3290   -0.9879 HB    25    HB      0.0000
     27 ACC         6.8865    3.4843    1.6559 HB    26    HB      0.0000
     28 ACC         6.0985    5.7777    0.2628 HB    27    HB      0.0000
     29 AR          4.3263    3.6694    0.6147 AR    28    AR      0.0000
     30 AR          1.5864    0.4747    0.9037 AR    29    AR      0.0000
     31 AR         -0.6736   -0.2129    1.4574 AR    30    AR      0.0000
@<TRIPOS>BOND
