@<TRIPOS>MOLECULE
Molecule Pharmacophore_PR10Alta1_5.mol2
     5     0
SMALL
NO_CHARGES
@<TRIPOS>ATOM
      3 DON        -0.7400   -2.4060   -0.6670 HB    2     HB      0.0000
      5 DON        -5.9180    1.0090   -0.3630 HB    4     HB      0.0000
      9 ACC         4.4040   -1.7620   -0.2380 HB    8     HB      0.0000
     10 ACC        -0.7400   -2.4060   -0.6670 HB    9     HB      0.0000
     12 ACC        -5.9180    1.0090   -0.3630 HB    11    HB      0.0000
@<TRIPOS>BOND
@<TRIPOS>MOLECULE
Pharmacophore_PR10Alta1_5.mol2
    32    34
SMALL
NO_CHARGES
@<TRIPOS>ATOM
      1 C1         -2.3310    1.1340   -1.1470 C.ar  1     UNK1   -0.0494
      2 C2         -3.7080    1.4040   -1.1750 C.ar  1     UNK1   -0.0288
      3 C3         -4.5830    0.7140   -0.3190 C.ar  1     UNK1    0.1022
      4 C4         -4.0700   -0.2530    0.5710 C.ar  1     UNK1    0.1028
      5 C5         -2.6900   -0.5180    0.5950 C.ar  1     UNK1   -0.0197
      6 C6         -1.8110    0.1620   -0.2720 C.ar  1     UNK1    0.0107
      7 C7         -0.3660   -0.0880   -0.2400 C.2   1     UNK1    0.1237
      8 C8          0.1120   -1.3760   -0.4340 C.2   1     UNK1    0.1518
      9 C9          1.4810   -1.6190   -0.4120 C.2   1     UNK1    0.2231
     10 O1          1.8850   -2.7660   -0.5940 O.2   1     UNK1   -0.2843
     11 C10         2.3490   -0.4480   -0.1690 C.ar  1     UNK1    0.0846
     12 C11         3.7610   -0.5640   -0.0950 C.ar  1     UNK1    0.0884
     13 C12         4.5600    0.5700    0.1330 C.ar  1     UNK1   -0.0013
     14 C13         3.9720    1.8330    0.2900 C.ar  1     UNK1    0.0775
     15 C14         2.5800    1.9620    0.2180 C.ar  1     UNK1   -0.0005
     16 C15         1.7770    0.8330   -0.0080 C.ar  1     UNK1    0.0990
     17 O2          0.4190    1.0190   -0.0670 O.3   1     UNK1   -0.3051
     18 O3          4.7480    2.9330    0.5100 O.3   1     UNK1   -0.3597
     19 O4          4.4040   -1.7620   -0.2380 O.3   1     UNK1   -0.3590
     20 O5         -0.7400   -2.4060   -0.6670 O.3   1     UNK1   -0.3545
     21 O6         -4.8880   -0.9450    1.4200 O.3   1     UNK1   -0.3573
     22 O7         -5.9180    1.0090   -0.3630 O.3   1     UNK1   -0.3573
     23 H1         -1.6511    1.6879   -1.8160 H     1     UNK1    0.0625
     24 H2         -4.1051    2.1611   -1.8720 H     1     UNK1    0.0644
     25 H5         -2.2904   -1.2663    1.3000 H     1     UNK1    0.0651
     26 H12         5.6566    0.4654    0.1887 H     1     UNK1    0.0669
     27 H14         2.1127    2.9537    0.3392 H     1     UNK1    0.0669
     28 H3          4.3496    3.7888    0.6164 H     1     UNK1    0.2173
     29 H4          5.3495   -1.8397   -0.1884 H     1     UNK1    0.2173
     30 H5         -0.4127   -3.2879   -0.7998 H     1     UNK1    0.2175
     31 H6         -4.5426   -1.5962    2.0193 H     1     UNK1    0.2174
     32 H7         -6.5096    0.5425    0.2157 H     1     UNK1    0.2174
@<TRIPOS>BOND
     1     1     2    ar
     2     1     6    ar
     3     1    23    1 
     4     2     3    ar
     5     2    24    1 
     6     3     4    ar
     7     3    22    1 
     8     4     5    ar
     9     4    21    1 
    10     5     6    ar
    11     5    25    1 
    12     6     7    1 
    13     7     8    2 
    14     7    17    1 
    15     8     9    2 
    16     8    20    1 
    17     9    10    2 
    18     9    11    1 
    19    11    12    ar
    20    11    16    ar
    21    12    13    ar
    22    12    19    1 
    23    13    14    ar
    24    13    26    1 
    25    14    15    ar
    26    14    18    1 
    27    15    16    ar
    28    15    27    1 
    29    16    17    1 
    30    18    28    1 
    31    19    29    1 
    32    20    30    1 
    33    21    31    1 
    34    22    32    1 
@<TRIPOS>MOLECULE
Molecule Pharmacophore_PR10Alta1_5.mol2
    15     0
SMALL
NO_CHARGES
@<TRIPOS>ATOM
      1 DON         4.7480    2.9330    0.5100 HB    0     HB      0.0000
      2 DON         4.4040   -1.7620   -0.2380 HB    1     HB      0.0000
      3 DON        -0.7400   -2.4060   -0.6670 HB    2     HB      0.0000
      4 DON        -4.8880   -0.9450    1.4200 HB    3     HB      0.0000
      5 DON        -5.9180    1.0090   -0.3630 HB    4     HB      0.0000
      6 ACC         1.8850   -2.7660   -0.5940 HB    5     HB      0.0000
      7 ACC         0.4190    1.0190   -0.0670 HB    6     HB      0.0000
      8 ACC         4.7480    2.9330    0.5100 HB    7     HB      0.0000
      9 ACC         4.4040   -1.7620   -0.2380 HB    8     HB      0.0000
     10 ACC        -0.7400   -2.4060   -0.6670 HB    9     HB      0.0000
     11 ACC        -4.8880   -0.9450    1.4200 HB    10    HB      0.0000
     12 ACC        -5.9180    1.0090   -0.3630 HB    11    HB      0.0000
     13 AR         -3.1988    0.4405   -0.2912 AR    12    AR      0.0000
     14 AR          0.9620   -0.2798   -0.2217 AR    13    AR      0.0000
     15 AR          3.1665    0.6977    0.0615 AR    14    AR      0.0000
@<TRIPOS>BOND
@<TRIPOS>MOLECULE
Pharmacophore_PR10Alta1_1.mol2
    74    78
SMALL
NO_CHARGES
@<TRIPOS>ATOM
      1 C1          1.1341   -1.6223   -1.9558 C.ar  1     UNK1   -0.0494
      2 C2          0.1655   -2.5443   -2.3836 C.ar  1     UNK1   -0.0288
      3 C3         -0.6040   -3.2474   -1.4428 C.ar  1     UNK1    0.1022
      4 C4         -0.3872   -3.0367   -0.0662 C.ar  1     UNK1    0.1028
      5 C5          0.5907   -2.1233    0.3596 C.ar  1     UNK1   -0.0197
      6 C6          1.3431   -1.3927   -0.5825 C.ar  1     UNK1    0.0107
      7 C7          2.3279   -0.3930   -0.1618 C.2   1     UNK1    0.1240
      8 C8          1.9177    0.9119    0.0630 C.2   1     UNK1    0.1576
      9 C9          2.8402    1.8987    0.4001 C.2   1     UNK1    0.2234
     10 O1          2.4803    3.0491    0.6406 O.2   1     UNK1   -0.2843
     11 C10         4.2523    1.4632    0.4427 C.ar  1     UNK1    0.0846
     12 C11         5.3093    2.3678    0.7312 C.ar  1     UNK1    0.0884
     13 C12         6.6439    1.9279    0.7441 C.ar  1     UNK1   -0.0013
     14 C13         6.9539    0.5902    0.4690 C.ar  1     UNK1    0.0775
     15 C14         5.9235   -0.3134    0.1794 C.ar  1     UNK1   -0.0005
     16 C15         4.5882    0.1189    0.1658 C.ar  1     UNK1    0.0990
     17 O2          3.6285   -0.8123   -0.1422 O.3   1     UNK1   -0.3051
     18 O3          8.2503    0.1648    0.4758 O.3   1     UNK1   -0.3597
     19 O4          5.0902    3.6900    0.9995 O.3   1     UNK1   -0.3590
     20 O5          0.3002    0.9774   -0.0852 O.3   1     UNK1   -0.3061
     21 C16        -0.4601    0.1027    0.5313 C.3   1     UNK1    0.1943
     22 C17        -1.7941    0.1642   -0.2586 C.3   1     UNK1    0.1410
     23 C18        -1.6438   -0.4711   -1.6708 C.3   1     UNK1    0.1144
     24 C19        -0.9709   -1.8633   -1.6306 C.3   1     UNK1    0.1119
     25 C20         0.3715   -1.7641   -0.8578 C.3   1     UNK1    0.1130
     26 O6          0.0948   -1.2295    0.4581 O.3   1     UNK1   -0.3402
     27 C21         1.0656   -3.1350   -0.6945 C.3   1     UNK1    0.0730
     28 O7          2.4441   -2.9649   -0.3619 O.3   1     UNK1   -0.3924
     29 O8         -1.8290   -2.8402   -1.0325 O.3   1     UNK1   -0.3865
     30 O9         -2.8711   -0.4848   -2.4074 O.3   1     UNK1   -0.3864
     31 O10        -2.6151   -0.5756    0.6652 O.3   1     UNK1   -0.3377
     32 C22        -4.0798   -0.0240    0.8175 C.3   1     UNK1    0.1885
     33 C23        -4.6536    0.2945   -0.5869 C.3   1     UNK1    0.1341
     34 C24        -4.9157   -1.0189   -1.3762 C.3   1     UNK1    0.1141
     35 C25        -5.7289   -2.0603   -0.5643 C.3   1     UNK1    0.1119
     36 C26        -5.0738   -2.2837    0.8251 C.3   1     UNK1    0.1130
     37 O11        -4.9154   -1.0008    1.4811 O.3   1     UNK1   -0.3405
     38 C27        -5.9132   -3.1895    1.7524 C.3   1     UNK1    0.0730
     39 O12        -5.1304   -3.6366    2.8618 O.3   1     UNK1   -0.3924
     40 O13        -7.0967   -1.6634   -0.4229 O.3   1     UNK1   -0.3865
     41 O14        -5.5163   -0.7753   -2.6535 O.3   1     UNK1   -0.3864
     42 O15        -5.8324    1.1006   -0.4707 O.3   1     UNK1   -0.3841
     43 O16        -1.1373   -3.6984    0.8617 O.3   1     UNK1   -0.3573
     44 O17        -1.5646   -4.1211   -1.8704 O.3   1     UNK1   -0.3573
     45 H1          1.7353   -1.0742   -2.7006 H     1     UNK1    0.0625
     46 H2          0.0085   -2.7167   -3.4616 H     1     UNK1    0.0644
     47 H5          0.7714   -1.9767    1.4378 H     1     UNK1    0.0651
     48 H12         7.4533    2.6416    0.9724 H     1     UNK1    0.0669
     49 H14         6.1623   -1.3680   -0.0387 H     1     UNK1    0.0669
     50 H3          8.4606   -0.7426    0.2892 H     1     UNK1    0.2173
     51 H4          5.7969    4.2948    1.1924 H     1     UNK1    0.2173
     52 H16        -0.6479    0.3682    1.5978 H     1     UNK1    0.0942
     53 H17        -2.2820    1.1875   -0.4241 H     1     UNK1    0.0675
     54 H18        -0.9496    0.1926   -2.2371 H     1     UNK1    0.0648
     55 H19        -0.7525   -2.1795   -2.6773 H     1     UNK1    0.0647
     56 H20         1.0553   -1.0694   -1.3990 H     1     UNK1    0.0647
     57 H211        0.9340   -3.7754   -1.5977 H     1     UNK1    0.0584
     58 H212        0.5770   -3.6577    0.1606 H     1     UNK1    0.0584
     59 H7          2.8708   -3.8077   -0.2615 H     1     UNK1    0.2095
     60 H8         -1.4157   -3.6952   -1.0078 H     1     UNK1    0.2100
     61 H9         -2.7793   -0.8726   -3.2697 H     1     UNK1    0.2100
     62 H22        -4.0359    0.9092    1.4263 H     1     UNK1    0.0938
     63 H23        -3.8886    0.8834   -1.1448 H     1     UNK1    0.0671
     64 H24        -3.9186   -1.4767   -1.5743 H     1     UNK1    0.0648
     65 H25        -5.7043   -3.0276   -1.1185 H     1     UNK1    0.0647
     66 H26        -4.0685   -2.7441    0.6819 H     1     UNK1    0.0647
     67 H271       -6.3684   -4.0423    1.1967 H     1     UNK1    0.0584
     68 H272       -6.7473   -2.5713    2.1588 H     1     UNK1    0.0584
     69 H12        -5.6468   -4.1938    3.4322 H     1     UNK1    0.2095
     70 H13        -7.5949   -2.3014    0.0745 H     1     UNK1    0.2100
     71 H14        -5.6764   -1.5778   -3.1359 H     1     UNK1    0.2100
     72 H15        -6.1840    1.2958   -1.3313 H     1     UNK1    0.2101
     73 H16        -0.9912   -3.5563    1.7896 H     1     UNK1    0.2174
     74 H17        -2.0852   -4.5969   -1.2339 H     1     UNK1    0.2174
@<TRIPOS>BOND
     1     1     2    ar
     2     1     6    ar
     3     1    45    1 
     4     2     3    ar
     5     2    46    1 
     6     3     4    ar
     7     3    44    1 
     8     4     5    ar
     9     4    43    1 
    10     5     6    ar
    11     5    47    1 
    12     6     7    1 
    13     7     8    2 
    14     7    17    1 
    15     8     9    2 
    16     8    20    1 
    17     9    10    2 
    18     9    11    1 
    19    11    12    ar
    20    11    16    ar
    21    12    13    ar
    22    12    19    1 
    23    13    14    ar
    24    13    48    1 
    25    14    15    ar
    26    14    18    1 
    27    15    16    ar
    28    15    49    1 
    29    16    17    1 
    30    18    50    1 
    31    19    51    1 
    32    20    21    1 
    33    21    22    1 
    34    21    26    1 
    35    21    52    1 
    36    22    23    1 
    37    22    31    1 
    38    22    53    1 
    39    23    24    1 
    40    23    30    1 
    41    23    54    1 
    42    24    25    1 
    43    24    29    1 
    44    24    55    1 
    45    25    26    1 
    46    25    27    1 
    47    25    56    1 
    48    27    28    1 
    49    27    57    1 
    50    27    58    1 
    51    28    59    1 
    52    29    60    1 
    53    30    61    1 
    54    31    32    1 
    55    32    33    1 
    56    32    37    1 
    57    32    62    1 
    58    33    34    1 
    59    33    42    1 
    60    33    63    1 
    61    34    35    1 
    62    34    41    1 
    63    34    64    1 
    64    35    36    1 
    65    35    40    1 
    66    35    65    1 
    67    36    37    1 
    68    36    38    1 
    69    36    66    1 
    70    38    39    1 
    71    38    67    1 
    72    38    68    1 
    73    39    69    1 
    74    40    70    1 
    75    41    71    1 
    76    42    72    1 
    77    43    73    1 
    78    44    74    1 
@<TRIPOS>MOLECULE
Molecule Pharmacophore_PR10Alta1_1.mol2
    31     0
SMALL
NO_CHARGES
@<TRIPOS>ATOM
      1 DON         8.2503    0.1648    0.4758 HB    0     HB      0.0000
      2 DON         5.0902    3.6900    0.9995 HB    1     HB      0.0000
      3 DON         2.4441   -2.9649   -0.3619 HB    2     HB      0.0000
      4 DON        -1.8290   -2.8402   -1.0325 HB    3     HB      0.0000
      5 DON        -2.8711   -0.4848   -2.4074 HB    4     HB      0.0000
      6 DON        -5.1304   -3.6366    2.8618 HB    5     HB      0.0000
      7 DON        -7.0967   -1.6634   -0.4229 HB    6     HB      0.0000
      8 DON        -5.5163   -0.7753   -2.6535 HB    7     HB      0.0000
      9 DON        -5.8324    1.1006   -0.4707 HB    8     HB      0.0000
     10 DON        -1.1373   -3.6984    0.8617 HB    9     HB      0.0000
     11 DON        -1.5646   -4.1211   -1.8704 HB    10    HB      0.0000
     12 ACC         2.4803    3.0491    0.6406 HB    11    HB      0.0000
     13 ACC         3.6285   -0.8123   -0.1422 HB    12    HB      0.0000
     14 ACC         8.2503    0.1648    0.4758 HB    13    HB      0.0000
     15 ACC         5.0902    3.6900    0.9995 HB    14    HB      0.0000
     16 ACC         0.4839    1.0351   -0.0365 HB    15    HB      0.0000
     17 ACC         0.0948   -1.2295    0.4581 HB    16    HB      0.0000
     18 ACC         2.4441   -2.9649   -0.3619 HB    17    HB      0.0000
     19 ACC        -1.8290   -2.8402   -1.0325 HB    18    HB      0.0000
     20 ACC        -2.8711   -0.4848   -2.4074 HB    19    HB      0.0000
     21 ACC        -2.7482   -0.5538    0.6416 HB    20    HB      0.0000
     22 ACC        -4.9154   -1.0008    1.4811 HB    21    HB      0.0000
     23 ACC        -5.1304   -3.6366    2.8618 HB    22    HB      0.0000
     24 ACC        -7.0967   -1.6634   -0.4229 HB    23    HB      0.0000
     25 ACC        -5.5163   -0.7753   -2.6535 HB    24    HB      0.0000
     26 ACC        -5.8324    1.1006   -0.4707 HB    25    HB      0.0000
     27 ACC        -1.1373   -3.6984    0.8617 HB    26    HB      0.0000
     28 ACC        -1.5646   -4.1211   -1.8704 HB    27    HB      0.0000
     29 AR          0.3737   -2.3278   -1.0119 AR    28    AR      0.0000
     30 AR          3.2591    0.5312    0.1279 AR    29    AR      0.0000
     31 AR          5.6118    1.0258    0.4554 AR    30    AR      0.0000
@<TRIPOS>BOND
@<TRIPOS>MOLECULE
Pharmacophore_PR10Alta1_2.mol2
    74    78
SMALL
NO_CHARGES
@<TRIPOS>ATOM
      1 C1          1.1345   -1.6231   -1.9547 C.ar  1     UNK1   -0.0494
      2 C2          0.1656   -2.5448   -2.3838 C.ar  1     UNK1   -0.0288
      3 C3         -0.6043   -3.2472   -1.4427 C.ar  1     UNK1    0.1022
      4 C4         -0.3876   -3.0373   -0.0660 C.ar  1     UNK1    0.1028
      5 C5          0.5905   -2.1238    0.3594 C.ar  1     UNK1   -0.0197
      6 C6          1.3424   -1.3930   -0.5826 C.ar  1     UNK1    0.0107
      7 C7          2.3281   -0.3936   -0.1619 C.2   1     UNK1    0.1240
      8 C8          1.9174    0.9122    0.0627 C.2   1     UNK1    0.1576
      9 C9          2.8395    1.8986    0.3994 C.2   1     UNK1    0.2234
     10 O1          2.4809    3.0497    0.6386 O.2   1     UNK1   -0.2843
     11 C10         4.2531    1.4632    0.4416 C.ar  1     UNK1    0.0846
     12 C11         5.3096    2.3673    0.7299 C.ar  1     UNK1    0.0884
     13 C12         6.6435    1.9271    0.7424 C.ar  1     UNK1   -0.0013
     14 C13         6.9538    0.5893    0.4681 C.ar  1     UNK1    0.0775
     15 C14         5.9231   -0.3141    0.1791 C.ar  1     UNK1   -0.0005
     16 C15         4.5884    0.1185    0.1659 C.ar  1     UNK1    0.0990
     17 O2          3.6278   -0.8122   -0.1422 O.3   1     UNK1   -0.3051
     18 O3          8.2498    0.1643    0.4757 O.3   1     UNK1   -0.3597
     19 O4          5.0901    3.6903    0.9979 O.3   1     UNK1   -0.3590
     20 O5          0.3002    0.9779   -0.0851 O.3   1     UNK1   -0.3061
     21 C16        -0.4606    0.1024    0.5309 C.3   1     UNK1    0.1943
     22 C17        -1.7943    0.1642   -0.2588 C.3   1     UNK1    0.1410
     23 C18        -1.6432   -0.4719   -1.6705 C.3   1     UNK1    0.1144
     24 C19        -0.9695   -1.8642   -1.6296 C.3   1     UNK1    0.1119
     25 C20         0.3714   -1.7642   -0.8561 C.3   1     UNK1    0.1130
     26 O6          0.0941   -1.2305    0.4596 O.3   1     UNK1   -0.3402
     27 C21         1.0654   -3.1359   -0.6921 C.3   1     UNK1    0.0730
     28 O7          2.4437   -2.9662   -0.3585 O.3   1     UNK1   -0.3924
     29 O8         -1.8292   -2.8412   -1.0317 O.3   1     UNK1   -0.3865
     30 O9         -2.8699   -0.4854   -2.4081 O.3   1     UNK1   -0.3864
     31 O10        -2.7562   -0.4757    0.5547 O.3   1     UNK1   -0.3377
     32 C22        -4.0793   -0.0239    0.8172 C.3   1     UNK1    0.1885
     33 C23        -4.6537    0.2942   -0.5876 C.3   1     UNK1    0.1341
     34 C24        -4.9169   -1.0187   -1.3759 C.3   1     UNK1    0.1141
     35 C25        -5.7305   -2.0604   -0.5636 C.3   1     UNK1    0.1119
     36 C26        -5.0745   -2.2839    0.8254 C.3   1     UNK1    0.1130
     37 O11        -4.9155   -1.0010    1.4813 O.3   1     UNK1   -0.3405
     38 C27        -5.9134   -3.1896    1.7533 C.3   1     UNK1    0.0730
     39 O12        -5.1304   -3.6355    2.8626 O.3   1     UNK1   -0.3924
     40 O13        -7.0979   -1.6637   -0.4221 O.3   1     UNK1   -0.3865
     41 O14        -5.5177   -0.7762   -2.6532 O.3   1     UNK1   -0.3864
     42 O15        -5.8324    1.1005   -0.4706 O.3   1     UNK1   -0.3841
     43 O16        -1.1381   -3.6981    0.8621 O.3   1     UNK1   -0.3573
     44 O17        -1.5647   -4.1220   -1.8691 O.3   1     UNK1   -0.3573
     45 H1          1.7368   -1.0756   -2.6990 H     1     UNK1    0.0625
     46 H2          0.0092   -2.7173   -3.4619 H     1     UNK1    0.0644
     47 H5          0.7715   -1.9774    1.4376 H     1     UNK1    0.0651
     48 H12         7.4530    2.6408    0.9702 H     1     UNK1    0.0669
     49 H14         6.1614   -1.3687   -0.0388 H     1     UNK1    0.0669
     50 H3          8.4603   -0.7433    0.2896 H     1     UNK1    0.2173
     51 H4          5.7968    4.2950    1.1908 H     1     UNK1    0.2173
     52 H16        -0.6492    0.3682    1.5972 H     1     UNK1    0.0942
     53 H17        -2.0945    1.2205   -0.4894 H     1     UNK1    0.0675
     54 H18        -0.9487    0.1918   -2.2366 H     1     UNK1    0.0648
     55 H19        -0.7502   -2.1808   -2.6760 H     1     UNK1    0.0647
     56 H20         1.0556   -1.0694   -1.3968 H     1     UNK1    0.0647
     57 H211        0.9342   -3.7763   -1.5953 H     1     UNK1    0.0584
     58 H212        0.5761   -3.6585    0.1627 H     1     UNK1    0.0584
     59 H7          2.8702   -3.8091   -0.2578 H     1     UNK1    0.2095
     60 H8         -1.4155   -3.6960   -1.0065 H     1     UNK1    0.2100
     61 H9         -2.7776   -0.8738   -3.2701 H     1     UNK1    0.2100
     62 H22        -4.0354    0.9093    1.4258 H     1     UNK1    0.0938
     63 H23        -3.8890    0.8828   -1.1461 H     1     UNK1    0.0671
     64 H24        -3.9199   -1.4770   -1.5741 H     1     UNK1    0.0648
     65 H25        -5.7061   -3.0275   -1.1179 H     1     UNK1    0.0647
     66 H26        -4.0693   -2.7444    0.6815 H     1     UNK1    0.0647
     67 H271       -6.3683   -4.0429    1.1981 H     1     UNK1    0.0584
     68 H272       -6.7478   -2.5716    2.1594 H     1     UNK1    0.0584
     69 H12        -5.6464   -4.1927    3.4334 H     1     UNK1    0.2095
     70 H13        -7.5962   -2.3015    0.0754 H     1     UNK1    0.2100
     71 H14        -5.6787   -1.5789   -3.1352 H     1     UNK1    0.2100
     72 H15        -6.1843    1.2954   -1.3312 H     1     UNK1    0.2101
     73 H16        -0.9920   -3.5567    1.7901 H     1     UNK1    0.2174
     74 H17        -2.0856   -4.5972   -1.2324 H     1     UNK1    0.2174
@<TRIPOS>BOND
     1     1     2    ar
     2     1     6    ar
     3     1    45    1 
     4     2     3    ar
     5     2    46    1 
     6     3     4    ar
     7     3    44    1 
     8     4     5    ar
     9     4    43    1 
    10     5     6    ar
    11     5    47    1 
    12     6     7    1 
    13     7     8    2 
    14     7    17    1 
    15     8     9    2 
    16     8    20    1 
    17     9    10    2 
    18     9    11    1 
    19    11    12    ar
    20    11    16    ar
    21    12    13    ar
    22    12    19    1 
    23    13    14    ar
    24    13    48    1 
    25    14    15    ar
    26    14    18    1 
    27    15    16    ar
    28    15    49    1 
    29    16    17    1 
    30    18    50    1 
    31    19    51    1 
    32    20    21    1 
    33    21    22    1 
    34    21    26    1 
    35    21    52    1 
    36    22    23    1 
    37    22    31    1 
    38    22    53    1 
    39    23    24    1 
    40    23    30    1 
    41    23    54    1 
    42    24    25    1 
    43    24    29    1 
    44    24    55    1 
    45    25    26    1 
    46    25    27    1 
    47    25    56    1 
    48    27    28    1 
    49    27    57    1 
    50    27    58    1 
    51    28    59    1 
    52    29    60    1 
    53    30    61    1 
    54    31    32    1 
    55    32    33    1 
    56    32    37    1 
    57    32    62    1 
    58    33    34    1 
    59    33    42    1 
    60    33    63    1 
    61    34    35    1 
    62    34    41    1 
    63    34    64    1 
    64    35    36    1 
    65    35    40    1 
    66    35    65    1 
    67    36    37    1 
    68    36    38    1 
    69    36    66    1 
    70    38    39    1 
    71    38    67    1 
    72    38    68    1 
    73    39    69    1 
    74    40    70    1 
    75    41    71    1 
    76    42    72    1 
    77    43    73    1 
    78    44    74    1 
@<TRIPOS>MOLECULE
Molecule Pharmacophore_PR10Alta1_2.mol2
    31     0
SMALL
NO_CHARGES
@<TRIPOS>ATOM
      1 DON         8.2498    0.1643    0.4757 HB    0     HB      0.0000
      2 DON         5.0901    3.6903    0.9979 HB    1     HB      0.0000
      3 DON         2.4437   -2.9662   -0.3585 HB    2     HB      0.0000
      4 DON        -1.8292   -2.8412   -1.0317 HB    3     HB      0.0000
      5 DON        -2.8699   -0.4854   -2.4081 HB    4     HB      0.0000
      6 DON        -5.1304   -3.6355    2.8626 HB    5     HB      0.0000
      7 DON        -7.0979   -1.6637   -0.4221 HB    6     HB      0.0000
      8 DON        -5.5177   -0.7762   -2.6532 HB    7     HB      0.0000
      9 DON        -5.8324    1.1005   -0.4706 HB    8     HB      0.0000
     10 DON        -1.1381   -3.6981    0.8621 HB    9     HB      0.0000
     11 DON        -1.5647   -4.1220   -1.8691 HB    10    HB      0.0000
     12 ACC         2.4809    3.0497    0.6386 HB    11    HB      0.0000
     13 ACC         3.6278   -0.8122   -0.1422 HB    12    HB      0.0000
     14 ACC         8.2498    0.1643    0.4757 HB    13    HB      0.0000
     15 ACC         5.0901    3.6903    0.9979 HB    14    HB      0.0000
     16 ACC         0.4846    1.0349   -0.0352 HB    15    HB      0.0000
     17 ACC         0.0941   -1.2305    0.4596 HB    16    HB      0.0000
     18 ACC         2.4437   -2.9662   -0.3585 HB    17    HB      0.0000
     19 ACC        -1.8292   -2.8412   -1.0317 HB    18    HB      0.0000
     20 ACC        -2.8699   -0.4854   -2.4081 HB    19    HB      0.0000
     21 ACC        -2.7482   -0.5536    0.6413 HB    20    HB      0.0000
     22 ACC        -4.9155   -1.0010    1.4813 HB    21    HB      0.0000
     23 ACC        -5.1304   -3.6355    2.8626 HB    22    HB      0.0000
     24 ACC        -7.0979   -1.6637   -0.4221 HB    23    HB      0.0000
     25 ACC        -5.5177   -0.7762   -2.6532 HB    24    HB      0.0000
     26 ACC        -5.8324    1.1005   -0.4706 HB    25    HB      0.0000
     27 ACC        -1.1381   -3.6981    0.8621 HB    26    HB      0.0000
     28 ACC        -1.5647   -4.1220   -1.8691 HB    27    HB      0.0000
     29 AR          0.3735   -2.3282   -1.0117 AR    28    AR      0.0000
     30 AR          3.2591    0.5311    0.1276 AR    29    AR      0.0000
     31 AR          5.6119    1.0252    0.4545 AR    30    AR      0.0000
@<TRIPOS>BOND
@<TRIPOS>MOLECULE
Pharmacophore_PR10Alta1_3.mol2
    52    52
SMALL
NO_CHARGES
@<TRIPOS>ATOM
      1 C1         -5.2216    0.3033   -2.7598 C.3   1     UNK1   -0.0649
      2 C2         -3.8256    0.3110   -2.1000 C.3   1     UNK1   -0.0498
      3 C3         -3.6427    1.4197   -1.0238 C.3   1     UNK1   -0.0019
      4 C4         -4.5166    1.2488    0.2429 C.3   1     UNK1    0.0656
      5 C5         -3.8137    2.0830    1.3322 C.3   1     UNK1    0.0327
      6 C6         -2.3516    2.1350    0.9109 C.2   1     UNK1    0.1429
      7 O1         -1.4317    2.2990    1.6930 O.2   1     UNK1   -0.2967
      8 C7         -2.1889    1.5636   -0.4956 C.3   1     UNK1    0.0409
      9 C8         -1.7880    0.1498   -0.2729 C.2   1     UNK1   -0.0750
     10 C9         -0.4667   -0.0511   -0.2389 C.2   1     UNK1   -0.0592
     11 C10         0.0376   -1.4632   -0.4520 C.3   1     UNK1    0.0734
     12 C11         1.5777   -1.5918   -0.4030 C.3   1     UNK1   -0.0232
     13 C12         2.0740   -3.0153   -0.7501 C.3   1     UNK1   -0.0504
     14 C13         3.6160   -3.1167   -0.7111 C.3   1     UNK1   -0.0530
     15 C14         4.2767   -1.7699   -0.3411 C.3   1     UNK1   -0.0530
     16 C15         5.8185   -1.8641   -0.3212 C.3   1     UNK1   -0.0526
     17 C16         6.4782   -0.5163    0.0470 C.3   1     UNK1   -0.0434
     18 C17         5.4320    0.5900    0.3156 C.3   1     UNK1    0.0337
     19 C18         3.9848    0.1100    0.1577 C.2   1     UNK1    0.1760
     20 O2          3.5928   -1.0206    0.3791 O.co2 1     UNK1   -0.6478
     21 O3          3.1398    1.0731   -0.2616 O.co2 1     UNK1   -0.6478
     22 O4         -0.5635   -2.2878    0.5432 O.3   1     UNK1   -0.3878
     23 O5         -5.8521    1.7077    0.0379 O.3   1     UNK1   -0.3911
     24 H11        -5.3527   -0.4913   -3.5311 H     1     UNK1    0.0230
     25 H12        -5.4595    1.3059   -3.1856 H     1     UNK1    0.0230
     26 H13        -5.9652    0.1040   -1.9532 H     1     UNK1    0.0230
     27 H21        -3.0264    0.3808   -2.8743 H     1     UNK1    0.0266
     28 H22        -3.6998   -0.6702   -1.5854 H     1     UNK1    0.0266
     29 H3         -3.9240    2.3907   -1.4943 H     1     UNK1    0.0335
     30 H4         -4.5319    0.1756    0.5450 H     1     UNK1    0.0600
     31 H51        -3.9713    1.6980    2.3666 H     1     UNK1    0.0367
     32 H52        -4.2210    3.1199    1.2863 H     1     UNK1    0.0367
     33 H7         -1.6906    2.2505    0.2303 H     1     UNK1    0.0423
     34 H8         -2.4387   -0.7256   -0.4369 H     1     UNK1    0.0577
     35 H9         -0.4130    0.3511    0.8046 H     1     UNK1    0.0595
     36 H10        -0.3188   -1.7934   -1.4556 H     1     UNK1    0.0637
     37 H111        1.9742   -1.2612    0.5853 H     1     UNK1    0.0293
     38 H112        1.9919   -0.9003   -1.1735 H     1     UNK1    0.0293
     39 H121        1.6701   -2.6215    0.2117 H     1     UNK1    0.0266
     40 H122        1.8094   -2.2815   -1.5469 H     1     UNK1    0.0266
     41 H131        4.0194   -3.5146   -1.6714 H     1     UNK1    0.0265
     42 H132        3.8807   -3.8473    0.0885 H     1     UNK1    0.0265
     43 H141        3.8835   -1.3797    0.6266 H     1     UNK1    0.0265
     44 H142        3.9991   -1.0354   -1.1326 H     1     UNK1    0.0265
     45 H151        5.0801   -2.1775    0.4532 H     1     UNK1    0.0265
     46 H152        5.2571   -1.7102   -1.2722 H     1     UNK1    0.0265
     47 H161        6.2923   -1.4114    0.6854 H     1     UNK1    0.0270
     48 H162        6.3591   -0.8353   -1.0147 H     1     UNK1    0.0270
     49 H171        5.7958    1.0656   -0.6250 H     1     UNK1    0.0374
     50 H172        5.4339    1.3773    1.1052 H     1     UNK1    0.0374
     51 H4         -0.2961   -3.1887    0.4044 H     1     UNK1    0.2102
     52 H5         -6.3883    1.6028    0.8151 H     1     UNK1    0.2098
@<TRIPOS>BOND
     1     1     2    1 
     2     1    24    1 
     3     1    25    1 
     4     1    26    1 
     5     2     3    1 
     6     2    27    1 
     7     2    28    1 
     8     3     4    1 
     9     3     8    1 
    10     3    29    1 
    11     4     5    1 
    12     4    23    1 
    13     4    30    1 
    14     5     6    1 
    15     5    31    1 
    16     5    32    1 
    17     6     7    2 
    18     6     8    1 
    19     8     9    1 
    20     8    33    1 
    21     9    10    2 
    22     9    34    1 
    23    10    11    1 
    24    10    35    1 
    25    11    12    1 
    26    11    22    1 
    27    11    36    1 
    28    12    13    1 
    29    12    37    1 
    30    12    38    1 
    31    13    14    1 
    32    13    39    1 
    33    13    40    1 
    34    14    15    1 
    35    14    41    1 
    36    14    42    1 
    37    15    16    1 
    38    15    43    1 
    39    15    44    1 
    40    16    17    1 
    41    16    45    1 
    42    16    46    1 
    43    17    18    1 
    44    17    47    1 
    45    17    48    1 
    46    18    19    1 
    47    18    49    1 
    48    18    50    1 
    49    19    20    2 
    50    19    21    1 
    51    22    51    1 
    52    23    52    1 
@<TRIPOS>MOLECULE
Molecule Pharmacophore_PR10Alta1_3.mol2
    19     0
SMALL
NO_CHARGES
@<TRIPOS>ATOM
      1 DON        -0.5635   -2.2878    0.5432 HB    0     HB      0.0000
      2 DON        -5.8521    1.7077    0.0379 HB    1     HB      0.0000
      3 ACC        -1.4317    2.2990    1.6930 HB    2     HB      0.0000
      4 ACC         3.5928   -1.0206    0.3791 HB    3     HB      0.0000
      5 ACC         3.1398    1.0731   -0.2616 HB    4     HB      0.0000
      6 ACC        -0.5635   -2.2878    0.5432 HB    5     HB      0.0000
      7 ACC        -5.8521    1.7077    0.0379 HB    6     HB      0.0000
      8 ANI         3.9848    0.1100    0.1577 CHG   7     CHG     0.1760
      9 HYD         6.1483   -1.1902   -0.1371 HYD   8     HYD     0.0000
     10 HYD         5.0476   -1.8170   -0.3312 HYD   9     HYD     0.0000
     11 HYD         3.9464   -2.4433   -0.5261 HYD   10    HYD     0.0000
     12 HYD         2.8450   -3.0660   -0.7306 HYD   11    HYD     0.0000
     13 HYD         1.8259   -2.3035   -0.5766 HYD   12    HYD     0.0000
     14 HYD        -2.1195    0.8274   -0.1866 HYD   13    HYD     0.0000
     15 HYD        -3.7341    0.8654   -1.5619 HYD   14    HYD     0.0000
     16 HYD        -4.5236    0.3071   -2.4299 HYD   15    HYD     0.0000
     17 HYD        -2.9158    1.4917   -0.7597 HYD   16    HYD     0.0000
     18 HYD        -1.1274    0.0493   -0.2559 HYD   17    HYD     0.0000
     19 HYD        -5.2216    0.3033   -2.7598 HYD   18    HYD     0.0000
@<TRIPOS>BOND
